*SPEF "IEEE 1481-1998"
*DESIGN "fsm"
*DATE "Thu Apr 29 22:21:00 2021"
*VENDOR "AUC CSCE Department"
*PROGRAM "SPEF Extractor"
*VERSION "1.0"
*DESIGN_FLOW "PIN_CAP NONE"
*DIVIDER /
*DELIMITER :
*BUS_DELIMITER []
*T_UNIT 1.00000 NS
*C_UNIT 1.00000 PF
*R_UNIT 1.00000 OHM
*L_UNIT 1.00000 HENRY


*NAME_MAP
*0 clk
*1 l_sense
*2 l_thresh[0]
*3 l_thresh[1]
*4 m_sense
*5 m_thresh_1
*6 m_thresh_2
*7 water_time_long
*8 water_time_short
*9 water_toggle
*10 net1
*11 net2
*12 net3
*13 net4
*14 net5
*15 net6
*16 net7
*17 net8
*18 net9

*D_NET *0 0
*CONN
*P clk I
*CAP
*RES
*END

*D_NET *1 0.00098409266446
*CONN
*P l_sense I
*I input1:A I
*CAP
0 *1:1 0.00024524937376
1 *1:2 0.0007388432907000001
2 input1:A 0
*RES
0 *1:1 input1:A 2.464285714285714
1 *1:2 *1:3 8.348214285714285
2 input1:A input1:A 0
3 *1:1 *1:2 0
*END

*D_NET *2 0.0007388432907000001
*CONN
*P l_thresh[0] I
*I input2:A I
*CAP
3 *2:1 0.0007388432907000001
4 input2:A 0
*RES
4 *2:1 *2:2 8.348214285714285
5 input2:A input2:A 0
6 input2:A *2:1 0
*END

*D_NET *3 0.00108705459334
*CONN
*P l_thresh[1] I
*I input3:A I
*CAP
5 *3:1 0.0006858781437400002
6 *3:3 0.00040117644959999997
7 input3:A 0
*RES
7 *3:1 *3:2 7.741071428571428
8 *3:3 input3:A 4.107142857142857
9 *3:3 *3:2 0
10 input3:A input3:A 0
*END

*D_NET *4 0.0013643795236200002
*CONN
*P m_sense I
*I input4:A I
*CAP
8 input4:A 0.00044015821855999997
9 *4:2 0.0009242213050600002
10 *4:1 0
*RES
11 input4:A *4:1 4.517857142857142
12 *4:2 *4:3 10.473214285714285
13 input4:A input4:A 0
14 *4:1 *4:2 0
*END

*D_NET *5 0.00040993717191999997
*CONN
*P m_thresh_1 I
*I input5:A I
*CAP
11 *5:1 0.0003596407917
12 *5:3 5.029638022e-05
13 *5:4 0
14 input5:A 0
*RES
15 *5:1 *5:2 0.6125666666666667
16 *5:3 *5:4 0.45535714285714285
17 *5:4 *5:2 0
18 input5:A input5:A 0
19 input5:A *5:3 0
*END

*D_NET *6 0.00046290231888
*CONN
*P m_thresh_2 I
*I input6:A I
*CAP
15 *6:1 0.0003596407917
16 *6:3 0.00010326152718000001
17 *6:4 0
18 input6:A 0
*RES
20 *6:1 *6:2 0.6125666666666667
21 *6:3 *6:4 1.0624999999999998
22 *6:4 *6:2 0
23 input6:A input6:A 0
24 input6:A *6:3 0
*END

*D_NET *7 0.00083217484578
*CONN
*P water_time_long I
*I input7:A I
*CAP
19 *7:1 0.00022243310784000002
20 *7:2 4.640188412000001e-05
21 *7:3 0.00047401755590000005
22 input7:A 8.932229792e-05
23 *7:5 0
*RES
25 *7:1 *7:2 2.4285714285714284
26 *7:2 *7:3 0.4107142857142857
27 *7:3 *7:4 5.3125
28 input7:A *7:5 0.8214285714285714
29 *7:5 *7:4 0
30 input7:A input7:A 0
*END

*D_NET *8 0.0005940891061999999
*CONN
*P water_time_short I
*I input8:A I
*CAP
24 *8:1 7.67789537e-05
25 *8:3 0.0005173101524999999
26 input8:A 0
*RES
31 *8:1 *8:2 0.7589285714285713
32 *8:3 *8:4 0.9008333333333334
33 input8:A input8:A 0
34 input8:A *8:2 0
35 *8:1 *8:3 0
*END

*D_NET *9 0.00054112395924
*CONN
*P water_toggle O
*I output9:X O
*CAP
27 *9:1 2.3813806740000006e-05
28 *9:3 0.0005173101524999999
29 output9:X 0
30 *9:2 0
*RES
36 *9:1 *9:2 0.15178571428571427
37 *9:3 *9:4 0.9008333333333334
38 output9:X output9:X 0
39 output9:X *9:1 0
40 *9:2 *9:3 0
*END

*D_NET *10 0
*CONN
*I input1:X O
*CAP
*RES
*END

*D_NET *11 0
*CONN
*I input2:X O
*CAP
*RES
*END

*D_NET *12 0
*CONN
*I input3:X O
*CAP
*RES
*END

*D_NET *13 0
*CONN
*I input4:X O
*CAP
*RES
*END

*D_NET *14 0
*CONN
*I input5:X O
*CAP
*RES
*END

*D_NET *15 0
*CONN
*I input6:X O
*CAP
*RES
*END

*D_NET *16 0
*CONN
*I input7:X O
*CAP
*RES
*END

*D_NET *17 0
*CONN
*I input8:X O
*CAP
*RES
*END

*D_NET *18 0.0008435167932
*CONN
*I output9:A I
*I _0_:LO O
*CAP
31 *18:1 0.00016946796088000002
32 *18:3 0.00067404883232
33 _0_:LO 0
34 output9:A 0
*RES
41 *18:1 *18:2 1.8214285714285714
42 *18:3 output9:A 6.982142857142857
43 _0_:LO _0_:LO 0
44 _0_:LO *18:1 0
45 *18:3 *18:2 0
46 output9:A output9:A 0
*END

