* NGSPICE file created from clk_divider.ext - technology: sky130A

* Black-box entry subcircuit for sky130_fd_sc_hd__decap_6 abstract view
.subckt sky130_fd_sc_hd__decap_6 VGND VNB VPB VPWR
.ends

* Black-box entry subcircuit for sky130_fd_sc_hd__decap_12 abstract view
.subckt sky130_fd_sc_hd__decap_12 VGND VNB VPB VPWR
.ends

* Black-box entry subcircuit for sky130_fd_sc_hd__fill_1 abstract view
.subckt sky130_fd_sc_hd__fill_1 VGND VNB VPB VPWR
.ends

* Black-box entry subcircuit for sky130_fd_sc_hd__decap_4 abstract view
.subckt sky130_fd_sc_hd__decap_4 VGND VNB VPB VPWR
.ends

* Black-box entry subcircuit for sky130_fd_sc_hd__decap_8 abstract view
.subckt sky130_fd_sc_hd__decap_8 VGND VNB VPB VPWR
.ends

* Black-box entry subcircuit for sky130_fd_sc_hd__conb_1 abstract view
.subckt sky130_fd_sc_hd__conb_1 VGND VNB VPB VPWR HI LO
.ends

* Black-box entry subcircuit for sky130_fd_sc_hd__nor4_2 abstract view
.subckt sky130_fd_sc_hd__nor4_2 A B C D VGND VNB VPB VPWR Y
.ends

* Black-box entry subcircuit for sky130_fd_sc_hd__tapvpwrvgnd_1 abstract view
.subckt sky130_fd_sc_hd__tapvpwrvgnd_1 VGND VPWR
.ends

* Black-box entry subcircuit for sky130_fd_sc_hd__fill_2 abstract view
.subckt sky130_fd_sc_hd__fill_2 VGND VNB VPB VPWR
.ends

* Black-box entry subcircuit for sky130_fd_sc_hd__or4_4 abstract view
.subckt sky130_fd_sc_hd__or4_4 A B C D VGND VNB VPB VPWR X
.ends

* Black-box entry subcircuit for sky130_fd_sc_hd__decap_3 abstract view
.subckt sky130_fd_sc_hd__decap_3 VGND VNB VPB VPWR
.ends

* Black-box entry subcircuit for sky130_fd_sc_hd__dfxtp_1 abstract view
.subckt sky130_fd_sc_hd__dfxtp_1 CLK D VGND VNB VPB VPWR Q
.ends

* Black-box entry subcircuit for sky130_fd_sc_hd__clkbuf_1 abstract view
.subckt sky130_fd_sc_hd__clkbuf_1 A VGND VNB VPB VPWR X
.ends

* Black-box entry subcircuit for sky130_fd_sc_hd__clkbuf_16 abstract view
.subckt sky130_fd_sc_hd__clkbuf_16 A VGND VNB VPB VPWR X
.ends

* Black-box entry subcircuit for sky130_fd_sc_hd__clkbuf_2 abstract view
.subckt sky130_fd_sc_hd__clkbuf_2 A VGND VNB VPB VPWR X
.ends

.subckt clk_divider clk clock_out VPWR VGND
XFILLER_39_222 VGND VGND VPWR VPWR sky130_fd_sc_hd__decap_6
XFILLER_22_111 VGND VGND VPWR VPWR sky130_fd_sc_hd__decap_12
XFILLER_22_144 VGND VGND VPWR VPWR sky130_fd_sc_hd__decap_12
XFILLER_26_30 VGND VGND VPWR VPWR sky130_fd_sc_hd__decap_12
XFILLER_9_115 VGND VGND VPWR VPWR sky130_fd_sc_hd__decap_12
XFILLER_36_236 VGND VGND VPWR VPWR sky130_fd_sc_hd__fill_1
XFILLER_36_258 VGND VGND VPWR VPWR sky130_fd_sc_hd__decap_4
XFILLER_8_192 VGND VGND VPWR VPWR sky130_fd_sc_hd__decap_8
XFILLER_12_54 VGND VGND VPWR VPWR sky130_fd_sc_hd__decap_12
XFILLER_12_87 VGND VGND VPWR VPWR sky130_fd_sc_hd__decap_12
XFILLER_18_225 VGND VGND VPWR VPWR sky130_fd_sc_hd__decap_12
XFILLER_18_258 VGND VGND VPWR VPWR sky130_fd_sc_hd__decap_12
XFILLER_37_51 VGND VGND VPWR VPWR sky130_fd_sc_hd__decap_6
XFILLER_5_151 VGND VGND VPWR VPWR sky130_fd_sc_hd__decap_12
XFILLER_5_184 VGND VGND VPWR VPWR sky130_fd_sc_hd__decap_12
X_062_ VGND VGND VPWR VPWR _062_/HI _090_/D sky130_fd_sc_hd__conb_1
XFILLER_18_42 VGND VGND VPWR VPWR sky130_fd_sc_hd__decap_12
XFILLER_11_253 VGND VGND VPWR VPWR sky130_fd_sc_hd__decap_12
XFILLER_11_220 VGND VGND VPWR VPWR sky130_fd_sc_hd__decap_8
XFILLER_34_30 VGND VGND VPWR VPWR sky130_fd_sc_hd__decap_12
X_045_ _045_/A _045_/B _045_/C _045_/D VGND VGND VPWR VPWR _075_/D sky130_fd_sc_hd__nor4_2
XFILLER_29_106 VGND VGND VPWR VPWR sky130_fd_sc_hd__decap_8
XFILLER_29_139 VGND VGND VPWR VPWR sky130_fd_sc_hd__decap_12
XFILLER_37_172 VGND VGND VPWR VPWR sky130_fd_sc_hd__decap_4
XFILLER_4_249 VGND VGND VPWR VPWR sky130_fd_sc_hd__decap_8
XFILLER_20_54 VGND VGND VPWR VPWR sky130_fd_sc_hd__decap_12
XFILLER_20_87 VGND VGND VPWR VPWR sky130_fd_sc_hd__decap_12
XFILLER_6_78 VGND VGND VPWR VPWR sky130_fd_sc_hd__decap_8
XFILLER_3_271 VGND VGND VPWR VPWR sky130_fd_sc_hd__fill_1
XFILLER_13_3 VGND VGND VPWR VPWR sky130_fd_sc_hd__decap_12
XFILLER_19_172 VGND VGND VPWR VPWR sky130_fd_sc_hd__decap_12
XFILLER_1_208 VGND VGND VPWR VPWR sky130_fd_sc_hd__decap_12
XFILLER_40_123 VGND VGND VPWR VPWR sky130_fd_sc_hd__decap_12
XFILLER_40_156 VGND VGND VPWR VPWR sky130_fd_sc_hd__decap_12
XPHY_170 VGND VPWR sky130_fd_sc_hd__tapvpwrvgnd_1
XPHY_181 VGND VPWR sky130_fd_sc_hd__tapvpwrvgnd_1
XPHY_192 VGND VPWR sky130_fd_sc_hd__tapvpwrvgnd_1
XFILLER_22_123 VGND VGND VPWR VPWR sky130_fd_sc_hd__decap_12
XFILLER_22_156 VGND VGND VPWR VPWR sky130_fd_sc_hd__decap_12
XFILLER_45_204 VGND VGND VPWR VPWR sky130_fd_sc_hd__decap_12
XFILLER_26_42 VGND VGND VPWR VPWR sky130_fd_sc_hd__decap_12
XFILLER_9_127 VGND VGND VPWR VPWR sky130_fd_sc_hd__decap_12
XFILLER_42_30 VGND VGND VPWR VPWR sky130_fd_sc_hd__decap_12
XFILLER_44_270 VGND VGND VPWR VPWR sky130_fd_sc_hd__fill_2
XFILLER_12_66 VGND VGND VPWR VPWR sky130_fd_sc_hd__decap_12
XFILLER_12_99 VGND VGND VPWR VPWR sky130_fd_sc_hd__decap_12
XFILLER_18_237 VGND VGND VPWR VPWR sky130_fd_sc_hd__decap_12
XFILLER_26_270 VGND VGND VPWR VPWR sky130_fd_sc_hd__fill_2
XFILLER_33_229 VGND VGND VPWR VPWR sky130_fd_sc_hd__decap_4
XFILLER_5_196 VGND VGND VPWR VPWR sky130_fd_sc_hd__decap_12
XFILLER_5_163 VGND VGND VPWR VPWR sky130_fd_sc_hd__decap_8
XFILLER_15_229 VGND VGND VPWR VPWR sky130_fd_sc_hd__decap_12
XFILLER_2_111 VGND VGND VPWR VPWR sky130_fd_sc_hd__decap_12
X_061_ VGND VGND VPWR VPWR _061_/HI _089_/D sky130_fd_sc_hd__conb_1
XFILLER_2_144 VGND VGND VPWR VPWR sky130_fd_sc_hd__decap_12
XFILLER_43_3 VGND VGND VPWR VPWR sky130_fd_sc_hd__decap_12
XFILLER_18_54 VGND VGND VPWR VPWR sky130_fd_sc_hd__decap_12
XFILLER_18_87 VGND VGND VPWR VPWR sky130_fd_sc_hd__decap_12
XFILLER_11_265 VGND VGND VPWR VPWR sky130_fd_sc_hd__decap_6
XFILLER_34_42 VGND VGND VPWR VPWR sky130_fd_sc_hd__decap_12
X_044_ _044_/A _044_/B _044_/C _044_/D VGND VGND VPWR VPWR _045_/D sky130_fd_sc_hd__or4_4
XFILLER_37_151 VGND VGND VPWR VPWR sky130_fd_sc_hd__decap_12
XFILLER_20_66 VGND VGND VPWR VPWR sky130_fd_sc_hd__decap_12
XFILLER_20_99 VGND VGND VPWR VPWR sky130_fd_sc_hd__decap_12
XFILLER_45_30 VGND VGND VPWR VPWR sky130_fd_sc_hd__decap_12
XFILLER_19_151 VGND VGND VPWR VPWR sky130_fd_sc_hd__decap_12
XFILLER_19_184 VGND VGND VPWR VPWR sky130_fd_sc_hd__decap_12
XFILLER_40_135 VGND VGND VPWR VPWR sky130_fd_sc_hd__decap_8
XFILLER_40_168 VGND VGND VPWR VPWR sky130_fd_sc_hd__decap_3
XPHY_160 VGND VPWR sky130_fd_sc_hd__tapvpwrvgnd_1
XPHY_171 VGND VPWR sky130_fd_sc_hd__tapvpwrvgnd_1
XPHY_182 VGND VPWR sky130_fd_sc_hd__tapvpwrvgnd_1
XPHY_193 VGND VPWR sky130_fd_sc_hd__tapvpwrvgnd_1
XFILLER_31_179 VGND VGND VPWR VPWR sky130_fd_sc_hd__decap_4
XFILLER_22_135 VGND VGND VPWR VPWR sky130_fd_sc_hd__decap_8
XFILLER_22_168 VGND VGND VPWR VPWR sky130_fd_sc_hd__decap_12
XFILLER_45_216 VGND VGND VPWR VPWR sky130_fd_sc_hd__decap_12
XFILLER_9_139 VGND VGND VPWR VPWR sky130_fd_sc_hd__decap_12
XFILLER_9_106 VGND VGND VPWR VPWR sky130_fd_sc_hd__decap_8
XFILLER_26_54 VGND VGND VPWR VPWR sky130_fd_sc_hd__decap_12
XFILLER_26_87 VGND VGND VPWR VPWR sky130_fd_sc_hd__decap_12
XFILLER_42_42 VGND VGND VPWR VPWR sky130_fd_sc_hd__decap_12
XFILLER_3_58 VGND VGND VPWR VPWR sky130_fd_sc_hd__decap_12
XFILLER_35_271 VGND VGND VPWR VPWR sky130_fd_sc_hd__fill_1
XFILLER_12_78 VGND VGND VPWR VPWR sky130_fd_sc_hd__decap_8
XFILLER_18_249 VGND VGND VPWR VPWR sky130_fd_sc_hd__decap_8
XFILLER_17_271 VGND VGND VPWR VPWR sky130_fd_sc_hd__fill_1
XFILLER_15_208 VGND VGND VPWR VPWR sky130_fd_sc_hd__decap_12
XFILLER_23_241 VGND VGND VPWR VPWR sky130_fd_sc_hd__decap_12
XFILLER_3_3 VGND VGND VPWR VPWR sky130_fd_sc_hd__decap_12
XFILLER_2_123 VGND VGND VPWR VPWR sky130_fd_sc_hd__decap_12
XFILLER_2_156 VGND VGND VPWR VPWR sky130_fd_sc_hd__decap_12
X_060_ VGND VGND VPWR VPWR _060_/HI _088_/D sky130_fd_sc_hd__conb_1
XFILLER_0_59 VGND VGND VPWR VPWR sky130_fd_sc_hd__decap_12
XFILLER_36_3 VGND VGND VPWR VPWR sky130_fd_sc_hd__decap_12
XFILLER_18_66 VGND VGND VPWR VPWR sky130_fd_sc_hd__decap_12
XFILLER_18_99 VGND VGND VPWR VPWR sky130_fd_sc_hd__decap_12
XFILLER_34_54 VGND VGND VPWR VPWR sky130_fd_sc_hd__decap_12
XFILLER_34_87 VGND VGND VPWR VPWR sky130_fd_sc_hd__decap_12
X_043_ _095_/Q _094_/Q _093_/Q _092_/Q VGND VGND VPWR VPWR _044_/D sky130_fd_sc_hd__or4_4
XFILLER_6_270 VGND VGND VPWR VPWR sky130_fd_sc_hd__fill_2
XFILLER_37_163 VGND VGND VPWR VPWR sky130_fd_sc_hd__decap_8
XFILLER_37_185 VGND VGND VPWR VPWR sky130_fd_sc_hd__fill_1
XFILLER_20_78 VGND VGND VPWR VPWR sky130_fd_sc_hd__decap_8
XFILLER_28_196 VGND VGND VPWR VPWR sky130_fd_sc_hd__decap_4
XFILLER_45_42 VGND VGND VPWR VPWR sky130_fd_sc_hd__decap_12
XFILLER_19_163 VGND VGND VPWR VPWR sky130_fd_sc_hd__decap_8
XFILLER_19_196 VGND VGND VPWR VPWR sky130_fd_sc_hd__decap_12
XFILLER_34_111 VGND VGND VPWR VPWR sky130_fd_sc_hd__decap_12
XFILLER_34_144 VGND VGND VPWR VPWR sky130_fd_sc_hd__decap_12
XFILLER_16_111 VGND VGND VPWR VPWR sky130_fd_sc_hd__decap_12
XFILLER_16_144 VGND VGND VPWR VPWR sky130_fd_sc_hd__decap_12
XPHY_150 VGND VPWR sky130_fd_sc_hd__tapvpwrvgnd_1
XPHY_161 VGND VPWR sky130_fd_sc_hd__tapvpwrvgnd_1
XPHY_172 VGND VPWR sky130_fd_sc_hd__tapvpwrvgnd_1
XPHY_183 VGND VPWR sky130_fd_sc_hd__tapvpwrvgnd_1
XPHY_194 VGND VPWR sky130_fd_sc_hd__tapvpwrvgnd_1
XFILLER_39_269 VGND VGND VPWR VPWR sky130_fd_sc_hd__decap_3
XFILLER_45_228 VGND VGND VPWR VPWR sky130_fd_sc_hd__decap_4
XFILLER_26_66 VGND VGND VPWR VPWR sky130_fd_sc_hd__decap_12
XFILLER_26_99 VGND VGND VPWR VPWR sky130_fd_sc_hd__decap_12
XFILLER_42_54 VGND VGND VPWR VPWR sky130_fd_sc_hd__decap_12
XFILLER_42_87 VGND VGND VPWR VPWR sky130_fd_sc_hd__decap_12
XFILLER_3_15 VGND VGND VPWR VPWR sky130_fd_sc_hd__decap_12
XFILLER_36_228 VGND VGND VPWR VPWR sky130_fd_sc_hd__decap_8
XFILLER_12_180 VGND VGND VPWR VPWR sky130_fd_sc_hd__decap_12
XFILLER_35_250 VGND VGND VPWR VPWR sky130_fd_sc_hd__decap_4
XFILLER_41_242 VGND VGND VPWR VPWR sky130_fd_sc_hd__decap_12
XFILLER_32_220 VGND VGND VPWR VPWR sky130_fd_sc_hd__decap_6
XFILLER_32_242 VGND VGND VPWR VPWR sky130_fd_sc_hd__decap_4
XFILLER_23_220 VGND VGND VPWR VPWR sky130_fd_sc_hd__decap_8
XFILLER_23_253 VGND VGND VPWR VPWR sky130_fd_sc_hd__decap_12
XFILLER_2_135 VGND VGND VPWR VPWR sky130_fd_sc_hd__decap_8
XFILLER_2_168 VGND VGND VPWR VPWR sky130_fd_sc_hd__decap_12
XFILLER_9_58 VGND VGND VPWR VPWR sky130_fd_sc_hd__decap_12
XFILLER_29_3 VGND VGND VPWR VPWR sky130_fd_sc_hd__decap_12
XFILLER_20_201 VGND VGND VPWR VPWR sky130_fd_sc_hd__decap_12
XFILLER_18_78 VGND VGND VPWR VPWR sky130_fd_sc_hd__decap_8
XFILLER_34_66 VGND VGND VPWR VPWR sky130_fd_sc_hd__decap_12
XFILLER_34_99 VGND VGND VPWR VPWR sky130_fd_sc_hd__decap_12
X_042_ _090_/Q _091_/Q _089_/Q _088_/Q VGND VGND VPWR VPWR _044_/C sky130_fd_sc_hd__or4_4
XFILLER_1_70 VGND VGND VPWR VPWR sky130_fd_sc_hd__decap_12
XFILLER_45_54 VGND VGND VPWR VPWR sky130_fd_sc_hd__decap_4
XFILLER_6_15 VGND VGND VPWR VPWR sky130_fd_sc_hd__decap_12
XFILLER_3_241 VGND VGND VPWR VPWR sky130_fd_sc_hd__decap_12
XFILLER_34_123 VGND VGND VPWR VPWR sky130_fd_sc_hd__decap_12
XFILLER_34_156 VGND VGND VPWR VPWR sky130_fd_sc_hd__decap_8
XFILLER_0_233 VGND VGND VPWR VPWR sky130_fd_sc_hd__decap_12
XFILLER_16_123 VGND VGND VPWR VPWR sky130_fd_sc_hd__decap_12
XFILLER_16_156 VGND VGND VPWR VPWR sky130_fd_sc_hd__decap_12
XFILLER_31_115 VGND VGND VPWR VPWR sky130_fd_sc_hd__decap_12
XPHY_140 VGND VPWR sky130_fd_sc_hd__tapvpwrvgnd_1
XPHY_151 VGND VPWR sky130_fd_sc_hd__tapvpwrvgnd_1
XPHY_162 VGND VPWR sky130_fd_sc_hd__tapvpwrvgnd_1
XPHY_173 VGND VPWR sky130_fd_sc_hd__tapvpwrvgnd_1
XPHY_184 VGND VPWR sky130_fd_sc_hd__tapvpwrvgnd_1
XPHY_195 VGND VPWR sky130_fd_sc_hd__tapvpwrvgnd_1
XFILLER_11_3 VGND VGND VPWR VPWR sky130_fd_sc_hd__decap_12
XFILLER_13_115 VGND VGND VPWR VPWR sky130_fd_sc_hd__decap_12
XFILLER_26_78 VGND VGND VPWR VPWR sky130_fd_sc_hd__decap_8
XFILLER_38_270 VGND VGND VPWR VPWR sky130_fd_sc_hd__fill_2
XFILLER_42_66 VGND VGND VPWR VPWR sky130_fd_sc_hd__decap_12
XFILLER_42_99 VGND VGND VPWR VPWR sky130_fd_sc_hd__decap_12
XFILLER_3_27 VGND VGND VPWR VPWR sky130_fd_sc_hd__decap_12
XFILLER_12_192 VGND VGND VPWR VPWR sky130_fd_sc_hd__decap_8
XFILLER_27_229 VGND VGND VPWR VPWR sky130_fd_sc_hd__decap_12
XFILLER_41_254 VGND VGND VPWR VPWR sky130_fd_sc_hd__decap_12
XFILLER_23_265 VGND VGND VPWR VPWR sky130_fd_sc_hd__decap_6
XFILLER_9_15 VGND VGND VPWR VPWR sky130_fd_sc_hd__decap_12
XFILLER_20_213 VGND VGND VPWR VPWR sky130_fd_sc_hd__decap_12
XFILLER_34_78 VGND VGND VPWR VPWR sky130_fd_sc_hd__decap_8
X_041_ _076_/Q _075_/Q _101_/Q _100_/Q VGND VGND VPWR VPWR _044_/B sky130_fd_sc_hd__or4_4
XFILLER_41_3 VGND VGND VPWR VPWR sky130_fd_sc_hd__decap_12
XFILLER_1_82 VGND VGND VPWR VPWR sky130_fd_sc_hd__decap_12
XFILLER_28_176 VGND VGND VPWR VPWR sky130_fd_sc_hd__decap_4
XPHY_300 VGND VPWR sky130_fd_sc_hd__tapvpwrvgnd_1
XFILLER_45_88 VGND VGND VPWR VPWR sky130_fd_sc_hd__decap_12
XFILLER_6_27 VGND VGND VPWR VPWR sky130_fd_sc_hd__fill_2
XFILLER_3_253 VGND VGND VPWR VPWR sky130_fd_sc_hd__decap_12
XFILLER_3_220 VGND VGND VPWR VPWR sky130_fd_sc_hd__decap_8
XFILLER_34_135 VGND VGND VPWR VPWR sky130_fd_sc_hd__decap_8
XFILLER_15_58 VGND VGND VPWR VPWR sky130_fd_sc_hd__decap_12
XFILLER_0_245 VGND VGND VPWR VPWR sky130_fd_sc_hd__decap_12
XPHY_141 VGND VPWR sky130_fd_sc_hd__tapvpwrvgnd_1
XPHY_130 VGND VPWR sky130_fd_sc_hd__tapvpwrvgnd_1
XPHY_152 VGND VPWR sky130_fd_sc_hd__tapvpwrvgnd_1
XFILLER_16_135 VGND VGND VPWR VPWR sky130_fd_sc_hd__decap_8
XFILLER_16_168 VGND VGND VPWR VPWR sky130_fd_sc_hd__decap_12
XFILLER_31_127 VGND VGND VPWR VPWR sky130_fd_sc_hd__decap_12
XPHY_163 VGND VPWR sky130_fd_sc_hd__tapvpwrvgnd_1
XPHY_174 VGND VPWR sky130_fd_sc_hd__tapvpwrvgnd_1
XPHY_185 VGND VPWR sky130_fd_sc_hd__tapvpwrvgnd_1
XPHY_196 VGND VPWR sky130_fd_sc_hd__tapvpwrvgnd_1
XFILLER_39_205 VGND VGND VPWR VPWR sky130_fd_sc_hd__fill_1
XFILLER_39_249 VGND VGND VPWR VPWR sky130_fd_sc_hd__decap_12
XFILLER_30_160 VGND VGND VPWR VPWR sky130_fd_sc_hd__fill_1
XFILLER_7_70 VGND VGND VPWR VPWR sky130_fd_sc_hd__decap_12
XFILLER_13_127 VGND VGND VPWR VPWR sky130_fd_sc_hd__decap_12
XFILLER_42_78 VGND VGND VPWR VPWR sky130_fd_sc_hd__decap_8
XFILLER_3_39 VGND VGND VPWR VPWR sky130_fd_sc_hd__decap_12
XFILLER_35_263 VGND VGND VPWR VPWR sky130_fd_sc_hd__decap_8
XFILLER_12_15 VGND VGND VPWR VPWR sky130_fd_sc_hd__decap_12
XFILLER_41_266 VGND VGND VPWR VPWR sky130_fd_sc_hd__decap_6
XFILLER_17_241 VGND VGND VPWR VPWR sky130_fd_sc_hd__decap_12
XFILLER_23_58 VGND VGND VPWR VPWR sky130_fd_sc_hd__decap_12
XFILLER_9_27 VGND VGND VPWR VPWR sky130_fd_sc_hd__decap_12
XFILLER_20_225 VGND VGND VPWR VPWR sky130_fd_sc_hd__decap_12
XFILLER_20_258 VGND VGND VPWR VPWR sky130_fd_sc_hd__decap_12
XFILLER_7_229 VGND VGND VPWR VPWR sky130_fd_sc_hd__decap_12
XFILLER_1_3 VGND VGND VPWR VPWR sky130_fd_sc_hd__decap_12
X_040_ _099_/Q _098_/Q _097_/Q _096_/Q VGND VGND VPWR VPWR _044_/A sky130_fd_sc_hd__or4_4
XFILLER_34_3 VGND VGND VPWR VPWR sky130_fd_sc_hd__decap_12
XFILLER_1_94 VGND VGND VPWR VPWR sky130_fd_sc_hd__decap_12
XFILLER_20_15 VGND VGND VPWR VPWR sky130_fd_sc_hd__decap_12
XFILLER_28_111 VGND VGND VPWR VPWR sky130_fd_sc_hd__decap_12
XFILLER_28_144 VGND VGND VPWR VPWR sky130_fd_sc_hd__decap_12
XPHY_301 VGND VPWR sky130_fd_sc_hd__tapvpwrvgnd_1
XFILLER_3_265 VGND VGND VPWR VPWR sky130_fd_sc_hd__decap_6
XFILLER_42_180 VGND VGND VPWR VPWR sky130_fd_sc_hd__decap_12
XFILLER_15_15 VGND VGND VPWR VPWR sky130_fd_sc_hd__decap_12
XFILLER_31_58 VGND VGND VPWR VPWR sky130_fd_sc_hd__decap_12
XFILLER_0_257 VGND VGND VPWR VPWR sky130_fd_sc_hd__decap_4
XPHY_142 VGND VPWR sky130_fd_sc_hd__tapvpwrvgnd_1
XPHY_131 VGND VPWR sky130_fd_sc_hd__tapvpwrvgnd_1
XPHY_120 VGND VPWR sky130_fd_sc_hd__tapvpwrvgnd_1
XPHY_153 VGND VPWR sky130_fd_sc_hd__tapvpwrvgnd_1
XPHY_164 VGND VPWR sky130_fd_sc_hd__tapvpwrvgnd_1
XPHY_175 VGND VPWR sky130_fd_sc_hd__tapvpwrvgnd_1
XFILLER_24_180 VGND VGND VPWR VPWR sky130_fd_sc_hd__decap_12
XFILLER_31_106 VGND VGND VPWR VPWR sky130_fd_sc_hd__decap_8
XFILLER_31_139 VGND VGND VPWR VPWR sky130_fd_sc_hd__decap_12
XPHY_186 VGND VPWR sky130_fd_sc_hd__tapvpwrvgnd_1
XPHY_197 VGND VPWR sky130_fd_sc_hd__tapvpwrvgnd_1
XPHY_0 VGND VGND VPWR VPWR sky130_fd_sc_hd__decap_3
XFILLER_7_82 VGND VGND VPWR VPWR sky130_fd_sc_hd__decap_12
XFILLER_13_106 VGND VGND VPWR VPWR sky130_fd_sc_hd__decap_8
XFILLER_13_139 VGND VGND VPWR VPWR sky130_fd_sc_hd__decap_12
XFILLER_21_172 VGND VGND VPWR VPWR sky130_fd_sc_hd__decap_12
XFILLER_29_261 VGND VGND VPWR VPWR sky130_fd_sc_hd__decap_8
XFILLER_12_27 VGND VGND VPWR VPWR sky130_fd_sc_hd__fill_2
XFILLER_41_223 VGND VGND VPWR VPWR sky130_fd_sc_hd__decap_4
XFILLER_17_220 VGND VGND VPWR VPWR sky130_fd_sc_hd__decap_8
XFILLER_17_253 VGND VGND VPWR VPWR sky130_fd_sc_hd__decap_12
XFILLER_32_201 VGND VGND VPWR VPWR sky130_fd_sc_hd__decap_4
XFILLER_23_15 VGND VGND VPWR VPWR sky130_fd_sc_hd__decap_12
XFILLER_14_201 VGND VGND VPWR VPWR sky130_fd_sc_hd__decap_12
XFILLER_9_39 VGND VGND VPWR VPWR sky130_fd_sc_hd__decap_12
XFILLER_13_70 VGND VGND VPWR VPWR sky130_fd_sc_hd__decap_12
XFILLER_20_237 VGND VGND VPWR VPWR sky130_fd_sc_hd__decap_12
XFILLER_9_271 VGND VGND VPWR VPWR sky130_fd_sc_hd__fill_1
XFILLER_18_15 VGND VGND VPWR VPWR sky130_fd_sc_hd__decap_12
XFILLER_7_208 VGND VGND VPWR VPWR sky130_fd_sc_hd__decap_12
XFILLER_10_270 VGND VGND VPWR VPWR sky130_fd_sc_hd__fill_2
XFILLER_27_3 VGND VGND VPWR VPWR sky130_fd_sc_hd__decap_12
X_099_ _099_/CLK _099_/D VGND VGND VPWR VPWR _099_/Q sky130_fd_sc_hd__dfxtp_1
XFILLER_1_51 VGND VGND VPWR VPWR sky130_fd_sc_hd__decap_6
XFILLER_20_27 VGND VGND VPWR VPWR sky130_fd_sc_hd__fill_2
XFILLER_28_123 VGND VGND VPWR VPWR sky130_fd_sc_hd__decap_12
XFILLER_28_156 VGND VGND VPWR VPWR sky130_fd_sc_hd__decap_4
XFILLER_29_58 VGND VGND VPWR VPWR sky130_fd_sc_hd__decap_12
XFILLER_43_115 VGND VGND VPWR VPWR sky130_fd_sc_hd__decap_12
XPHY_302 VGND VPWR sky130_fd_sc_hd__tapvpwrvgnd_1
XFILLER_42_192 VGND VGND VPWR VPWR sky130_fd_sc_hd__decap_8
XFILLER_15_27 VGND VGND VPWR VPWR sky130_fd_sc_hd__decap_12
XFILLER_25_115 VGND VGND VPWR VPWR sky130_fd_sc_hd__decap_12
XFILLER_31_15 VGND VGND VPWR VPWR sky130_fd_sc_hd__decap_12
XFILLER_33_192 VGND VGND VPWR VPWR sky130_fd_sc_hd__decap_6
XPHY_143 VGND VPWR sky130_fd_sc_hd__tapvpwrvgnd_1
XPHY_132 VGND VPWR sky130_fd_sc_hd__tapvpwrvgnd_1
XPHY_121 VGND VPWR sky130_fd_sc_hd__tapvpwrvgnd_1
XPHY_110 VGND VPWR sky130_fd_sc_hd__tapvpwrvgnd_1
XPHY_154 VGND VPWR sky130_fd_sc_hd__tapvpwrvgnd_1
XPHY_165 VGND VPWR sky130_fd_sc_hd__tapvpwrvgnd_1
XPHY_176 VGND VPWR sky130_fd_sc_hd__tapvpwrvgnd_1
XPHY_187 VGND VPWR sky130_fd_sc_hd__tapvpwrvgnd_1
XPHY_198 VGND VPWR sky130_fd_sc_hd__tapvpwrvgnd_1
XFILLER_24_192 VGND VGND VPWR VPWR sky130_fd_sc_hd__decap_8
XFILLER_21_70 VGND VGND VPWR VPWR sky130_fd_sc_hd__decap_12
XFILLER_39_229 VGND VGND VPWR VPWR sky130_fd_sc_hd__decap_4
XPHY_1 VGND VGND VPWR VPWR sky130_fd_sc_hd__decap_3
XFILLER_7_94 VGND VGND VPWR VPWR sky130_fd_sc_hd__decap_12
XFILLER_26_15 VGND VGND VPWR VPWR sky130_fd_sc_hd__decap_12
XFILLER_21_151 VGND VGND VPWR VPWR sky130_fd_sc_hd__decap_12
XFILLER_21_184 VGND VGND VPWR VPWR sky130_fd_sc_hd__decap_12
Xclkbuf_2_3_0_clk clkbuf_2_3_0_clk/A VGND VGND VPWR VPWR _101_/CLK sky130_fd_sc_hd__clkbuf_1
XFILLER_8_144 VGND VGND VPWR VPWR sky130_fd_sc_hd__decap_12
XFILLER_8_111 VGND VGND VPWR VPWR sky130_fd_sc_hd__decap_12
XFILLER_35_221 VGND VGND VPWR VPWR sky130_fd_sc_hd__decap_6
XFILLER_37_58 VGND VGND VPWR VPWR sky130_fd_sc_hd__decap_12
XFILLER_17_265 VGND VGND VPWR VPWR sky130_fd_sc_hd__decap_6
XFILLER_4_180 VGND VGND VPWR VPWR sky130_fd_sc_hd__decap_12
XFILLER_23_27 VGND VGND VPWR VPWR sky130_fd_sc_hd__decap_12
XFILLER_14_213 VGND VGND VPWR VPWR sky130_fd_sc_hd__decap_12
XFILLER_13_82 VGND VGND VPWR VPWR sky130_fd_sc_hd__decap_12
XFILLER_1_172 VGND VGND VPWR VPWR sky130_fd_sc_hd__decap_12
XFILLER_20_249 VGND VGND VPWR VPWR sky130_fd_sc_hd__decap_8
XFILLER_18_27 VGND VGND VPWR VPWR sky130_fd_sc_hd__fill_2
XFILLER_34_15 VGND VGND VPWR VPWR sky130_fd_sc_hd__decap_12
X_098_ _099_/CLK _098_/D VGND VGND VPWR VPWR _098_/Q sky130_fd_sc_hd__dfxtp_1
XFILLER_37_179 VGND VGND VPWR VPWR sky130_fd_sc_hd__decap_6
XFILLER_29_15 VGND VGND VPWR VPWR sky130_fd_sc_hd__decap_12
XFILLER_28_135 VGND VGND VPWR VPWR sky130_fd_sc_hd__decap_8
XFILLER_43_127 VGND VGND VPWR VPWR sky130_fd_sc_hd__decap_12
XPHY_303 VGND VPWR sky130_fd_sc_hd__tapvpwrvgnd_1
XFILLER_19_70 VGND VGND VPWR VPWR sky130_fd_sc_hd__decap_12
XFILLER_15_39 VGND VGND VPWR VPWR sky130_fd_sc_hd__decap_12
XFILLER_25_127 VGND VGND VPWR VPWR sky130_fd_sc_hd__decap_12
XFILLER_33_160 VGND VGND VPWR VPWR sky130_fd_sc_hd__decap_4
XFILLER_31_27 VGND VGND VPWR VPWR sky130_fd_sc_hd__decap_12
XFILLER_0_204 VGND VGND VPWR VPWR sky130_fd_sc_hd__decap_12
XPHY_100 VGND VPWR sky130_fd_sc_hd__tapvpwrvgnd_1
XPHY_144 VGND VPWR sky130_fd_sc_hd__tapvpwrvgnd_1
XPHY_133 VGND VPWR sky130_fd_sc_hd__tapvpwrvgnd_1
XPHY_122 VGND VPWR sky130_fd_sc_hd__tapvpwrvgnd_1
XPHY_111 VGND VPWR sky130_fd_sc_hd__tapvpwrvgnd_1
XPHY_155 VGND VPWR sky130_fd_sc_hd__tapvpwrvgnd_1
XPHY_166 VGND VPWR sky130_fd_sc_hd__tapvpwrvgnd_1
XPHY_177 VGND VPWR sky130_fd_sc_hd__tapvpwrvgnd_1
XPHY_188 VGND VPWR sky130_fd_sc_hd__tapvpwrvgnd_1
XPHY_199 VGND VPWR sky130_fd_sc_hd__tapvpwrvgnd_1
XFILLER_21_82 VGND VGND VPWR VPWR sky130_fd_sc_hd__decap_12
XPHY_2 VGND VGND VPWR VPWR sky130_fd_sc_hd__decap_3
Xclkbuf_0_clk clk VGND VGND VPWR VPWR clkbuf_0_clk/X sky130_fd_sc_hd__clkbuf_16
XFILLER_7_51 VGND VGND VPWR VPWR sky130_fd_sc_hd__decap_6
XFILLER_26_27 VGND VGND VPWR VPWR sky130_fd_sc_hd__fill_2
XFILLER_38_252 VGND VGND VPWR VPWR sky130_fd_sc_hd__decap_4
XFILLER_21_163 VGND VGND VPWR VPWR sky130_fd_sc_hd__decap_8
XFILLER_21_196 VGND VGND VPWR VPWR sky130_fd_sc_hd__decap_12
XFILLER_42_15 VGND VGND VPWR VPWR sky130_fd_sc_hd__decap_12
XFILLER_8_156 VGND VGND VPWR VPWR sky130_fd_sc_hd__decap_12
XFILLER_8_123 VGND VGND VPWR VPWR sky130_fd_sc_hd__decap_12
XFILLER_35_233 VGND VGND VPWR VPWR sky130_fd_sc_hd__fill_1
XFILLER_37_15 VGND VGND VPWR VPWR sky130_fd_sc_hd__decap_12
XFILLER_5_115 VGND VGND VPWR VPWR sky130_fd_sc_hd__decap_12
XFILLER_27_70 VGND VGND VPWR VPWR sky130_fd_sc_hd__decap_12
XFILLER_32_258 VGND VGND VPWR VPWR sky130_fd_sc_hd__decap_12
XFILLER_4_192 VGND VGND VPWR VPWR sky130_fd_sc_hd__decap_8
XFILLER_4_30 VGND VGND VPWR VPWR sky130_fd_sc_hd__decap_12
XFILLER_23_39 VGND VGND VPWR VPWR sky130_fd_sc_hd__decap_12
Xclkbuf_2_2_0_clk clkbuf_2_3_0_clk/A VGND VGND VPWR VPWR _099_/CLK sky130_fd_sc_hd__clkbuf_1
XFILLER_14_225 VGND VGND VPWR VPWR sky130_fd_sc_hd__decap_12
XFILLER_14_258 VGND VGND VPWR VPWR sky130_fd_sc_hd__decap_12
XFILLER_13_94 VGND VGND VPWR VPWR sky130_fd_sc_hd__decap_12
XFILLER_1_151 VGND VGND VPWR VPWR sky130_fd_sc_hd__decap_12
XFILLER_1_184 VGND VGND VPWR VPWR sky130_fd_sc_hd__decap_12
XFILLER_34_27 VGND VGND VPWR VPWR sky130_fd_sc_hd__fill_2
X_097_ _099_/CLK _097_/D VGND VGND VPWR VPWR _097_/Q sky130_fd_sc_hd__dfxtp_1
XFILLER_29_27 VGND VGND VPWR VPWR sky130_fd_sc_hd__decap_12
XFILLER_43_106 VGND VGND VPWR VPWR sky130_fd_sc_hd__decap_8
XFILLER_43_139 VGND VGND VPWR VPWR sky130_fd_sc_hd__decap_12
XFILLER_45_15 VGND VGND VPWR VPWR sky130_fd_sc_hd__decap_12
XFILLER_45_59 VGND VGND VPWR VPWR sky130_fd_sc_hd__decap_12
XPHY_304 VGND VPWR sky130_fd_sc_hd__tapvpwrvgnd_1
XFILLER_19_82 VGND VGND VPWR VPWR sky130_fd_sc_hd__decap_12
XFILLER_35_70 VGND VGND VPWR VPWR sky130_fd_sc_hd__decap_12
XFILLER_32_3 VGND VGND VPWR VPWR sky130_fd_sc_hd__decap_12
XFILLER_25_106 VGND VGND VPWR VPWR sky130_fd_sc_hd__decap_8
XFILLER_25_139 VGND VGND VPWR VPWR sky130_fd_sc_hd__decap_12
XFILLER_18_180 VGND VGND VPWR VPWR sky130_fd_sc_hd__decap_12
XFILLER_33_172 VGND VGND VPWR VPWR sky130_fd_sc_hd__decap_4
XFILLER_31_39 VGND VGND VPWR VPWR sky130_fd_sc_hd__decap_12
XFILLER_0_216 VGND VGND VPWR VPWR sky130_fd_sc_hd__decap_12
XPHY_134 VGND VPWR sky130_fd_sc_hd__tapvpwrvgnd_1
XPHY_123 VGND VPWR sky130_fd_sc_hd__tapvpwrvgnd_1
XPHY_112 VGND VPWR sky130_fd_sc_hd__tapvpwrvgnd_1
XPHY_101 VGND VPWR sky130_fd_sc_hd__tapvpwrvgnd_1
XPHY_145 VGND VPWR sky130_fd_sc_hd__tapvpwrvgnd_1
XPHY_156 VGND VPWR sky130_fd_sc_hd__tapvpwrvgnd_1
XPHY_167 VGND VPWR sky130_fd_sc_hd__tapvpwrvgnd_1
XPHY_178 VGND VPWR sky130_fd_sc_hd__tapvpwrvgnd_1
XPHY_189 VGND VPWR sky130_fd_sc_hd__tapvpwrvgnd_1
XFILLER_21_94 VGND VGND VPWR VPWR sky130_fd_sc_hd__decap_12
XPHY_3 VGND VGND VPWR VPWR sky130_fd_sc_hd__decap_3
XFILLER_15_172 VGND VGND VPWR VPWR sky130_fd_sc_hd__decap_12
XFILLER_30_186 VGND VGND VPWR VPWR sky130_fd_sc_hd__decap_12
XFILLER_42_27 VGND VGND VPWR VPWR sky130_fd_sc_hd__fill_2
XFILLER_44_201 VGND VGND VPWR VPWR sky130_fd_sc_hd__decap_12
XFILLER_8_168 VGND VGND VPWR VPWR sky130_fd_sc_hd__decap_12
XFILLER_8_135 VGND VGND VPWR VPWR sky130_fd_sc_hd__decap_8
XFILLER_26_201 VGND VGND VPWR VPWR sky130_fd_sc_hd__decap_12
XFILLER_37_27 VGND VGND VPWR VPWR sky130_fd_sc_hd__decap_12
XFILLER_5_127 VGND VGND VPWR VPWR sky130_fd_sc_hd__decap_12
XFILLER_27_82 VGND VGND VPWR VPWR sky130_fd_sc_hd__decap_12
XFILLER_40_270 VGND VGND VPWR VPWR sky130_fd_sc_hd__fill_2
XFILLER_43_70 VGND VGND VPWR VPWR sky130_fd_sc_hd__decap_12
XFILLER_4_42 VGND VGND VPWR VPWR sky130_fd_sc_hd__decap_12
XFILLER_13_51 VGND VGND VPWR VPWR sky130_fd_sc_hd__decap_6
XFILLER_14_237 VGND VGND VPWR VPWR sky130_fd_sc_hd__decap_12
XFILLER_22_270 VGND VGND VPWR VPWR sky130_fd_sc_hd__fill_2
XFILLER_1_163 VGND VGND VPWR VPWR sky130_fd_sc_hd__decap_8
XFILLER_1_196 VGND VGND VPWR VPWR sky130_fd_sc_hd__decap_12
XFILLER_9_241 VGND VGND VPWR VPWR sky130_fd_sc_hd__decap_12
XFILLER_11_229 VGND VGND VPWR VPWR sky130_fd_sc_hd__decap_12
X_096_ _099_/CLK _096_/D VGND VGND VPWR VPWR _096_/Q sky130_fd_sc_hd__dfxtp_1
XFILLER_37_115 VGND VGND VPWR VPWR sky130_fd_sc_hd__decap_12
XFILLER_45_170 VGND VGND VPWR VPWR sky130_fd_sc_hd__decap_4
Xclkbuf_2_1_0_clk clkbuf_2_1_0_clk/A VGND VGND VPWR VPWR _100_/CLK sky130_fd_sc_hd__clkbuf_1
XFILLER_29_39 VGND VGND VPWR VPWR sky130_fd_sc_hd__decap_12
XPHY_305 VGND VPWR sky130_fd_sc_hd__tapvpwrvgnd_1
XFILLER_45_27 VGND VGND VPWR VPWR sky130_fd_sc_hd__fill_2
XFILLER_10_30 VGND VGND VPWR VPWR sky130_fd_sc_hd__decap_12
XFILLER_19_94 VGND VGND VPWR VPWR sky130_fd_sc_hd__decap_12
XFILLER_19_115 VGND VGND VPWR VPWR sky130_fd_sc_hd__decap_12
XFILLER_35_82 VGND VGND VPWR VPWR sky130_fd_sc_hd__decap_12
XFILLER_25_3 VGND VGND VPWR VPWR sky130_fd_sc_hd__decap_12
X_079_ _102_/CLK _079_/D VGND VGND VPWR VPWR _079_/Q sky130_fd_sc_hd__dfxtp_1
XFILLER_18_192 VGND VGND VPWR VPWR sky130_fd_sc_hd__decap_8
XFILLER_33_151 VGND VGND VPWR VPWR sky130_fd_sc_hd__decap_6
XFILLER_0_228 VGND VGND VPWR VPWR sky130_fd_sc_hd__decap_4
XPHY_146 VGND VPWR sky130_fd_sc_hd__tapvpwrvgnd_1
XPHY_135 VGND VPWR sky130_fd_sc_hd__tapvpwrvgnd_1
XPHY_124 VGND VPWR sky130_fd_sc_hd__tapvpwrvgnd_1
XPHY_113 VGND VPWR sky130_fd_sc_hd__tapvpwrvgnd_1
XPHY_102 VGND VPWR sky130_fd_sc_hd__tapvpwrvgnd_1
XPHY_157 VGND VPWR sky130_fd_sc_hd__tapvpwrvgnd_1
XPHY_168 VGND VPWR sky130_fd_sc_hd__tapvpwrvgnd_1
XPHY_179 VGND VPWR sky130_fd_sc_hd__tapvpwrvgnd_1
XFILLER_21_51 VGND VGND VPWR VPWR sky130_fd_sc_hd__decap_6
XPHY_4 VGND VGND VPWR VPWR sky130_fd_sc_hd__decap_3
XFILLER_15_151 VGND VGND VPWR VPWR sky130_fd_sc_hd__decap_12
XFILLER_15_184 VGND VGND VPWR VPWR sky130_fd_sc_hd__decap_12
XFILLER_30_198 VGND VGND VPWR VPWR sky130_fd_sc_hd__fill_2
XFILLER_44_213 VGND VGND VPWR VPWR sky130_fd_sc_hd__decap_12
XFILLER_26_213 VGND VGND VPWR VPWR sky130_fd_sc_hd__decap_12
XFILLER_37_39 VGND VGND VPWR VPWR sky130_fd_sc_hd__decap_12
XFILLER_41_227 VGND VGND VPWR VPWR sky130_fd_sc_hd__fill_1
XFILLER_5_139 VGND VGND VPWR VPWR sky130_fd_sc_hd__decap_12
XFILLER_5_106 VGND VGND VPWR VPWR sky130_fd_sc_hd__decap_8
XFILLER_27_94 VGND VGND VPWR VPWR sky130_fd_sc_hd__decap_12
XFILLER_32_249 VGND VGND VPWR VPWR sky130_fd_sc_hd__decap_8
XFILLER_43_82 VGND VGND VPWR VPWR sky130_fd_sc_hd__decap_12
XFILLER_4_54 VGND VGND VPWR VPWR sky130_fd_sc_hd__decap_12
XFILLER_4_87 VGND VGND VPWR VPWR sky130_fd_sc_hd__decap_12
XFILLER_14_249 VGND VGND VPWR VPWR sky130_fd_sc_hd__decap_8
XFILLER_9_253 VGND VGND VPWR VPWR sky130_fd_sc_hd__decap_12
XFILLER_9_220 VGND VGND VPWR VPWR sky130_fd_sc_hd__decap_8
XFILLER_13_271 VGND VGND VPWR VPWR sky130_fd_sc_hd__fill_1
XFILLER_11_208 VGND VGND VPWR VPWR sky130_fd_sc_hd__decap_12
XFILLER_6_201 VGND VGND VPWR VPWR sky130_fd_sc_hd__decap_12
X_095_ _101_/CLK _095_/D VGND VGND VPWR VPWR _095_/Q sky130_fd_sc_hd__dfxtp_1
XFILLER_37_127 VGND VGND VPWR VPWR sky130_fd_sc_hd__decap_12
XPHY_306 VGND VPWR sky130_fd_sc_hd__tapvpwrvgnd_1
XFILLER_36_182 VGND VGND VPWR VPWR sky130_fd_sc_hd__decap_12
XFILLER_10_42 VGND VGND VPWR VPWR sky130_fd_sc_hd__decap_12
XFILLER_19_51 VGND VGND VPWR VPWR sky130_fd_sc_hd__decap_6
XFILLER_19_127 VGND VGND VPWR VPWR sky130_fd_sc_hd__decap_12
XFILLER_35_94 VGND VGND VPWR VPWR sky130_fd_sc_hd__decap_12
X_078_ _102_/CLK _078_/D VGND VGND VPWR VPWR _078_/Q sky130_fd_sc_hd__dfxtp_1
XFILLER_2_270 VGND VGND VPWR VPWR sky130_fd_sc_hd__fill_2
XFILLER_18_3 VGND VGND VPWR VPWR sky130_fd_sc_hd__decap_12
XPHY_147 VGND VPWR sky130_fd_sc_hd__tapvpwrvgnd_1
XPHY_136 VGND VPWR sky130_fd_sc_hd__tapvpwrvgnd_1
XPHY_125 VGND VPWR sky130_fd_sc_hd__tapvpwrvgnd_1
XPHY_114 VGND VPWR sky130_fd_sc_hd__tapvpwrvgnd_1
XPHY_103 VGND VPWR sky130_fd_sc_hd__tapvpwrvgnd_1
XPHY_158 VGND VPWR sky130_fd_sc_hd__tapvpwrvgnd_1
XPHY_169 VGND VPWR sky130_fd_sc_hd__tapvpwrvgnd_1
Xclkbuf_2_0_0_clk clkbuf_2_1_0_clk/A VGND VGND VPWR VPWR _102_/CLK sky130_fd_sc_hd__clkbuf_1
XPHY_5 VGND VGND VPWR VPWR sky130_fd_sc_hd__decap_3
XFILLER_15_163 VGND VGND VPWR VPWR sky130_fd_sc_hd__decap_8
XFILLER_15_196 VGND VGND VPWR VPWR sky130_fd_sc_hd__decap_12
XFILLER_30_111 VGND VGND VPWR VPWR sky130_fd_sc_hd__decap_12
XFILLER_30_144 VGND VGND VPWR VPWR sky130_fd_sc_hd__decap_12
XFILLER_30_177 VGND VGND VPWR VPWR sky130_fd_sc_hd__decap_6
XFILLER_16_30 VGND VGND VPWR VPWR sky130_fd_sc_hd__decap_12
XFILLER_44_225 VGND VGND VPWR VPWR sky130_fd_sc_hd__decap_12
XFILLER_44_258 VGND VGND VPWR VPWR sky130_fd_sc_hd__decap_12
XFILLER_12_111 VGND VGND VPWR VPWR sky130_fd_sc_hd__decap_12
XFILLER_12_144 VGND VGND VPWR VPWR sky130_fd_sc_hd__decap_12
XFILLER_26_225 VGND VGND VPWR VPWR sky130_fd_sc_hd__decap_12
XFILLER_26_258 VGND VGND VPWR VPWR sky130_fd_sc_hd__decap_12