*SPEF "IEEE 1481-1998"
*DESIGN "fsm"
*DATE "Thu Apr 29 15:16:20 2021"
*VENDOR "AUC CSCE Department"
*PROGRAM "SPEF Extractor"
*VERSION "1.0"
*DESIGN_FLOW "PIN_CAP NONE"
*DIVIDER /
*DELIMITER :
*BUS_DELIMITER []
*T_UNIT 1.00000 NS
*C_UNIT 1.00000 PF
*R_UNIT 1.00000 OHM
*L_UNIT 1.00000 HENRY


*NAME_MAP
*0 clk
*1 l_sense
*2 l_thresh[0]
*3 l_thresh[1]
*4 m_sense
*5 m_thresh_1
*6 m_thresh_2
*7 water_time_long
*8 water_time_short
*9 water_toggle
*10 _00_
*11 _01_
*12 _02_
*13 _03_
*14 _04_
*15 _05_
*16 _06_
*17 state\[0\]
*18 state\[1\]
*19 net1
*20 net2
*21 net3
*22 net4
*23 net5
*24 net6
*25 net7
*26 net8
*27 net9

*D_NET *0 0.003137826288440001
*CONN
*P clk I
*I _16_:CLK I
*I _15_:CLK I
*I _14_:CLK I
*CAP
0 _16_:CLK 5.034052896000001e-05
1 *0:2 0.00064615428352
2 *0:3 8.223124824000001e-05
3 *0:4 5.029638022e-05
4 *0:6 5.034052896000001e-05
5 *0:7 0.00023567439458000006
6 *0:8 2.2645457910000002e-05
7 *0:9 0.00016946796088000002
8 *0:11 0.00024507856575000004
9 *0:12 4.640188412000001e-05
10 *0:13 0.0010831167459400002
11 _14_:CLK 5.034052896000001e-05
12 *0:16 0.00023626981952
13 *0:18 0.00016946796088000002
14 *0:1 0
15 _15_:CLK 0
16 *0:15 0
17 *0:17 0
*RES
0 _16_:CLK *0:1 0.4107142857142857
1 *0:2 *0:3 7.285714285714286
2 *0:3 *0:4 0.8214285714285714
3 *0:4 *0:5 0.45535714285714285
4 *0:6 _16_:CLK 0.4107142857142857
5 *0:7 *0:8 2.580357142857143
6 *0:8 *0:9 0.13839285714285712
7 *0:9 *0:10 1.8214285714285714
8 *0:11 *0:10 0.13839285714285712
9 *0:11 *0:12 2.4285714285714284
10 *0:12 *0:13 0.4107142857142857
11 *0:13 *0:14 12.294642857142856
12 _14_:CLK *0:15 0.4107142857142857
13 *0:16 *0:17 1.6428571428571428
14 *0:16 _15_:CLK 0.6071428571428571
15 *0:18 *0:19 1.8214285714285714
16 _16_:CLK _16_:CLK 0
17 *0:1 *0:18 0
18 *0:6 *0:5 0
19 _15_:CLK _15_:CLK 0
20 _15_:CLK *0:7 0
21 *0:15 *0:14 0
22 _14_:CLK _14_:CLK 0
23 *0:17 *0:19 0
*END

*D_NET *1 0.00098409266446
*CONN
*P l_sense I
*I input1:A I
*CAP
18 *1:1 0.00024524937376
19 *1:2 0.0007388432907000001
20 input1:A 0
*RES
24 *1:1 input1:A 2.464285714285714
25 *1:2 *1:3 8.348214285714285
26 input1:A input1:A 0
27 *1:1 *1:2 0
*END

*D_NET *2 0.0007388432907000001
*CONN
*P l_thresh[0] I
*I input2:A I
*CAP
21 *2:1 0.0007388432907000001
22 input2:A 0
*RES
28 *2:1 *2:2 8.348214285714285
29 input2:A input2:A 0
30 input2:A *2:1 0
*END

*D_NET *3 0.0012724326077000001
*CONN
*P l_thresh[1] I
*I input3:A I
*CAP
23 *3:1 0.0008712561581000002
24 *3:3 0.00040117644959999997
25 input3:A 0
*RES
31 *3:1 *3:2 9.866071428571429
32 *3:3 input3:A 4.107142857142857
33 *3:3 *3:2 0
34 input3:A input3:A 0
*END

*D_NET *4 0.00197232568682
*CONN
*P m_sense I
*I input4:A I
*CAP
26 input4:A 4.017137184e-05
27 *4:1 0.00121979359776
28 *4:3 0.0007123607172200001
29 *4:2 0
*RES
35 input4:A *4:1 0.30357142857142855
36 *4:1 *4:2 12.732142857142856
37 *4:3 *4:4 8.044642857142856
38 input4:A input4:A 0
39 *4:2 *4:3 0
*END

*D_NET *5 0.00040993717191999997
*CONN
*P m_thresh_1 I
*I input5:A I
*CAP
30 *5:1 0.0003596407917
31 *5:3 5.029638022e-05
32 *5:4 0
33 input5:A 0
*RES
40 *5:1 *5:2 0.6125666666666667
41 *5:3 *5:4 0.45535714285714285
42 *5:4 *5:2 0
43 input5:A input5:A 0
44 input5:A *5:3 0
*END

*D_NET *6 0.00046290231888
*CONN
*P m_thresh_2 I
*I input6:A I
*CAP
34 *6:1 0.0003596407917
35 *6:3 0.00010326152718000001
36 *6:4 0
37 input6:A 0
*RES
45 *6:1 *6:2 0.6125666666666667
46 *6:3 *6:4 1.0624999999999998
47 *6:4 *6:2 0
48 input6:A input6:A 0
49 input6:A *6:3 0
*END

*D_NET *7 0.00083217484578
*CONN
*P water_time_long I
*I input7:A I
*CAP
38 *7:1 0.00022243310784000002
39 *7:2 4.640188412000001e-05
40 *7:3 0.00047401755590000005
41 input7:A 8.932229792e-05
42 *7:5 0
*RES
50 *7:1 *7:2 2.4285714285714284
51 *7:2 *7:3 0.4107142857142857
52 *7:3 *7:4 5.3125
53 input7:A *7:5 0.8214285714285714
54 *7:5 *7:4 0
55 input7:A input7:A 0
*END

*D_NET *8 0.0005940891061999999
*CONN
*P water_time_short I
*I input8:A I
*CAP
43 *8:1 7.67789537e-05
44 *8:3 0.0005173101524999999
45 input8:A 0
*RES
56 *8:1 *8:2 0.7589285714285713
57 *8:3 *8:4 0.9008333333333334
58 input8:A input8:A 0
59 input8:A *8:2 0
60 *8:1 *8:3 0
*END

*D_NET *9 0.00073611844864
*CONN
*P water_toggle O
*I output9:X O
*CAP
46 output9:X 0.00016728583584
47 *9:2 0.00020919182110000001
48 *9:4 0.0003596407917
49 *9:1 0
*RES
61 output9:X *9:1 1.6428571428571428
62 *9:2 *9:3 2.276785714285714
63 *9:4 *9:5 0.6125666666666667
64 output9:X output9:X 0
65 *9:1 *9:3 0
66 *9:2 *9:4 0
*END

*D_NET *10 0.0009282621300800001
*CONN
*I _14_:D I
*I _12_:Y O
*CAP
50 *10:1 0.00032836340175999997
51 _14_:D 0.0005998987283200001
52 _12_:Y 0
53 *10:3 0
*RES
67 *10:1 *10:2 3.642857142857143
68 _14_:D *10:3 6.200892857142857
69 _12_:Y _12_:Y 0
70 _12_:Y *10:1 0
71 *10:3 *10:2 0
72 _14_:D _14_:D 0
*END

*D_NET *11 0.00119215889336
*CONN
*I _15_:D I
*I _10_:X O
*CAP
54 *11:1 0.00059318913656
55 *11:3 8.084800032e-05
56 _10_:X 0.0005181217564799999
57 *11:4 0
58 _15_:D 0
*RES
73 *11:1 *11:2 6.678571428571428
74 *11:3 _15_:D 0.732142857142857
75 _10_:X *11:4 5.339285714285714
76 _10_:X _10_:X 0
77 *11:4 *11:2 0
78 *11:3 *11:1 0
79 _15_:D _15_:D 0
*END

*D_NET *12 0.0013593078228400003
*CONN
*I _16_:D I
*I _13_:X O
*CAP
59 _16_:D 3.720536768e-05
60 *12:2 9.23569381e-05
61 *12:3 4.640188412000001e-05
62 *12:4 0.0010940213350200002
63 _13_:X 8.932229792e-05
64 *12:1 0
65 *12:6 0
*RES
80 _16_:D *12:1 0.27232142857142855
81 *12:2 *12:3 0.9375
82 *12:3 *12:4 0.4107142857142857
83 *12:4 *12:5 12.419642857142856
84 _13_:X *12:6 0.8214285714285714
85 _16_:D _16_:D 0
86 *12:1 *12:2 0
87 *12:6 *12:5 0
88 _13_:X _13_:X 0
*END

*D_NET *13 0.0025056098126
*CONN
*I _11_:C I
*I _10_:A1 I
*I _07_:X O
*CAP
66 _11_:C 1.34773344e-05
67 *13:1 0.00022243310784000002
68 *13:3 0.00016728583584
69 *13:5 0.00083153229788
70 *13:7 0.0007909941392
71 *13:8 0.00011650281392
72 *13:10 0.00032321291168
73 *13:11 4.017137184e-05
74 *13:4 0
75 _07_:X 0
76 _10_:A1 0
*RES
89 _11_:C _11_:C 0.022321428571428572
90 *13:1 *13:2 2.4285714285714284
91 *13:3 *13:4 1.6428571428571428
92 *13:5 *13:6 9.410714285714285
93 *13:7 _07_:X 8.214285714285714
94 *13:8 *13:9 1.2142857142857142
95 *13:10 *13:11 3.2857142857142856
96 *13:11 _11_:C 0.30357142857142855
97 _11_:C _11_:C 0
98 _11_:C *13:1 0
99 *13:3 *13:2 0
100 *13:4 *13:5 0
101 *13:7 *13:6 0
102 _07_:X _07_:X 0
103 _10_:A1 _10_:A1 0
104 _10_:A1 *13:8 0
105 *13:10 *13:9 0
*END

*D_NET *14 0.0015401103516
*CONN
*I _09_:A2 I
*I _08_:Y O
*CAP
77 *14:1 0.00059318913656
78 _08_:Y 0.0009469212150399999
79 *14:3 0
80 _09_:A2 0
*RES
106 *14:1 *14:2 6.678571428571428
107 _08_:Y *14:3 9.857142857142856
108 _08_:Y _08_:Y 0
109 *14:3 *14:1 0
110 _09_:A2 _09_:A2 0
111 _09_:A2 *14:2 0
*END

*D_NET *15 0.0010118443186
*CONN
*I _13_:A2 I
*I _10_:A2 I
*I _09_:Y O
*CAP
81 *15:1 0.00011650281392
82 *15:3 0.0002062676048
83 *15:4 0.00024891568132000004
84 _10_:A2 0.00044015821855999997
85 _13_:A2 0
86 _09_:Y 0
87 *15:5 0
*RES
112 *15:1 *15:2 1.2142857142857142
113 *15:3 _09_:Y 2.0535714285714284
114 *15:4 *15:1 2.7321428571428568
115 _10_:A2 *15:5 4.517857142857142
116 _10_:A2 _10_:A2 0
117 _13_:A2 _13_:A2 0
118 _13_:A2 *15:2 0
119 *15:3 *15:1 0
120 _09_:Y _09_:Y 0
121 *15:5 *15:4 0
*END

*D_NET *16 0.0012267028633600001
*CONN
*I _13_:B1 I
*I _12_:B I
*I _11_:X O
*CAP
88 *16:1 0.00016946796088000002
89 *16:3 0.0005960852944
90 *16:4 4.017137184e-05
91 _12_:B 1.1782474880000001e-05
92 *16:5 5.034052896000001e-05
93 *16:6 0.00026215696806
94 *16:8 9.669826434000002e-05
95 _13_:B1 0
96 _11_:X 0
*RES
122 *16:1 *16:2 1.8214285714285714
123 *16:3 *16:4 6.160714285714286
124 *16:4 _12_:B 0.30357142857142855
125 _12_:B _12_:B 0.004464285714285714
126 *16:5 _11_:X 0.4107142857142857
127 *16:6 *16:7 2.883928571428571
128 *16:8 *16:7 0.4107142857142857
129 *16:8 *16:1 0.45535714285714285
130 _13_:B1 _13_:B1 0
131 _13_:B1 *16:1 0
132 *16:3 *16:2 0
133 _12_:B _12_:B 0
134 _11_:X _11_:X 0
135 *16:5 *16:6 0
*END

*D_NET *17 0.002129545719
*CONN
*I _14_:Q O
*I _12_:A_N I
*I _11_:B I
*I _09_:C1 I
*CAP
97 _12_:A_N 4.017137184e-05
98 *17:1 0.00016728583584
99 *17:3 0.00035484597524
100 _14_:Q 0.0002062676048
101 *17:6 0.00032440251456
102 *17:8 0.00048725884264
103 _11_:B 5.034052896000001e-05
104 *17:10 0.00049897304512
105 *17:2 0
106 *17:5 0
107 _09_:C1 0
108 *17:7 0
*RES
136 _12_:A_N *17:1 0.30357142857142855
137 *17:1 *17:2 1.6428571428571428
138 *17:3 *17:4 3.946428571428571
139 _14_:Q *17:5 2.0535714285714284
140 *17:6 _09_:C1 0.30357142857142855
141 *17:6 *17:7 2.875
142 *17:8 *17:3 5.4642857142857135
143 _11_:B *17:9 0.4107142857142857
144 *17:10 *17:9 0.9107142857142857
145 *17:10 _09_:C1 4.107142857142857
146 _12_:A_N _12_:A_N 0
147 *17:2 *17:3 0
148 *17:5 *17:4 0
149 _14_:Q _14_:Q 0
150 _09_:C1 _09_:C1 0
151 *17:7 *17:8 0
152 _11_:B _11_:B 0
*END

*D_NET *18 0.0029196940023600002
*CONN
*I _15_:Q O
*I _11_:A I
*I _10_:B1 I
*I _09_:B1 I
*CAP
109 _10_:B1 4.017137184e-05
110 _09_:B1 4.017137184e-05
111 *18:2 0.0002062676048
112 *18:4 0.00083153229788
113 _15_:Q 0.00024524937376
114 *18:7 0.00016847543872000001
115 *18:9 0.0006752384351999999
116 *18:11 0.00011650281392
117 *18:1 0.0005960852944
118 *18:3 0
119 *18:6 0
120 _11_:A 0
121 *18:10 0
122 *18:13 0
*RES
153 _10_:B1 *18:1 0.30357142857142855
154 _09_:B1 *18:2 0.30357142857142855
155 *18:2 *18:3 2.0535714285714284
156 *18:4 *18:5 9.410714285714285
157 _15_:Q *18:6 2.464285714285714
158 *18:7 _11_:A 0.30357142857142855
159 *18:7 *18:8 1.232142857142857
160 *18:9 *18:8 0.30357142857142855
161 *18:9 *18:10 6.571428571428571
162 *18:11 *18:12 1.2142857142857142
163 *18:1 *18:13 6.160714285714286
164 _10_:B1 _10_:B1 0
165 *18:3 *18:5 0
166 *18:6 *18:4 0
167 _15_:Q _15_:Q 0
168 _11_:A _11_:A 0
169 *18:10 *18:14 0
170 *18:13 *18:11 0
171 *18:9 *18:12 0
*END

*D_NET *19 0
*CONN
*I input1:X O
*CAP
*RES
*END

*D_NET *20 0.0014017607541200001
*CONN
*I input2:X O
*I _07_:B_N I
*CAP
123 *20:1 0.00014298538739999998
124 *20:3 0.00125877536672
125 input2:X 0
126 _07_:B_N 0
*RES
172 *20:1 *20:2 1.5178571428571426
173 *20:3 _07_:B_N 13.142857142857142
174 *20:3 *20:1 0
175 input2:X input2:X 0
176 input2:X *20:2 0
177 _07_:B_N _07_:B_N 0
*END

*D_NET *21 0.0036162513958400005
*CONN
*I input3:X O
*I _07_:A I
*CAP
127 *21:1 0.0019173178105600002
128 _07_:A 0.00016728583584
129 input3:X 0.0015316477494400002
130 *21:4 0
131 *21:3 0
*RES
178 *21:1 *21:2 21.857142857142854
179 _07_:A *21:3 1.6428571428571428
180 input3:X *21:4 16.017857142857142
181 input3:X input3:X 0
182 *21:4 *21:1 0
183 *21:3 *21:2 0
184 _07_:A _07_:A 0
*END

*D_NET *22 0.0018528229504800003
*CONN
*I input4:X O
*I _09_:A1 I
*CAP
132 *22:1 0.0013347011940000003
133 input4:X 0.0005181217564799999
134 _09_:A1 0
135 *22:3 0
*RES
185 *22:1 *22:2 15.178571428571427
186 input4:X *22:3 5.339285714285714
187 _09_:A1 _09_:A1 0
188 _09_:A1 *22:1 0
189 *22:3 *22:2 0
190 input4:X input4:X 0
*END

*D_NET *23 0
*CONN
*I input5:X O
*CAP
*RES
*END

*D_NET *24 0.0016593982882000002
*CONN
*I input6:X O
*I _08_:A I
*CAP
136 input6:X 0.00024524937376
137 *24:2 0.0014141489144400001
138 _08_:A 0
139 *24:1 0
*RES
191 input6:X *24:1 2.464285714285714
192 *24:2 *24:3 16.08928571428571
193 _08_:A _08_:A 0
194 _08_:A *24:2 0
195 *24:1 *24:3 0
196 input6:X input6:X 0
*END

*D_NET *25 0
*CONN
*I input7:X O
*CAP
*RES
*END

*D_NET *26 0
*CONN
*I input8:X O
*CAP
*RES
*END

*D_NET *27 0.0031784480962400003
*CONN
*I output9:A I
*I _13_:A1 I
*I _16_:Q O
*CAP
140 _16_:Q 0.00082997590816
141 _13_:A1 0.00016728583584
142 *27:3 0.0005181217564799999
143 *27:4 0.00046077626916000004
144 *27:6 0.0012022883266000002
145 *27:1 0
146 *27:2 0
147 output9:A 0
*RES
197 _16_:Q *27:1 8.625
198 _13_:A1 *27:2 1.6428571428571428
199 *27:3 output9:A 5.339285714285714
200 *27:4 *27:5 5.160714285714286
201 *27:6 *27:4 13.660714285714285
202 *27:1 *27:6 0
203 _16_:Q _16_:Q 0
204 _13_:A1 _13_:A1 0
205 *27:2 *27:4 0
206 output9:A output9:A 0
207 *27:3 *27:5 0
*END

