*SPEF "IEEE 1481-1998"
*DESIGN "fsm"
*DATE "Thu Apr 29 15:22:08 2021"
*VENDOR "AUC CSCE Department"
*PROGRAM "SPEF Extractor"
*VERSION "1.0"
*DESIGN_FLOW "PIN_CAP NONE"
*DIVIDER /
*DELIMITER :
*BUS_DELIMITER []
*T_UNIT 1.00000 NS
*C_UNIT 1.00000 PF
*R_UNIT 1.00000 OHM
*L_UNIT 1.00000 HENRY


*NAME_MAP
*0 clk
*1 l_sense
*2 l_thresh[0]
*3 l_thresh[1]
*4 m_sense
*5 m_thresh_1
*6 m_thresh_2
*7 water_time_long
*8 water_time_short
*9 water_toggle
*10 _00_
*11 _01_
*12 _02_
*13 _03_
*14 _04_
*15 _05_
*16 _06_
*17 _07_
*18 _08_
*19 _09_
*20 _10_
*21 state\[0\]
*22 state\[1\]
*23 net1
*24 net2
*25 net3
*26 net4
*27 net5
*28 net6
*29 net7
*30 net8
*31 net9

*D_NET *0 0.0028717978232600007
*CONN
*P clk I
*I _24_:CLK I
*I _23_:CLK I
*I _22_:CLK I
*CAP
0 _22_:CLK 0.0005181217564799999
1 *0:2 0.00018270924762000003
2 *0:4 4.640188412000001e-05
3 *0:5 0.0006991194304800001
4 *0:6 0.0004078111222
5 *0:8 0.00032321291168
6 *0:1 4.017137184e-05
7 *0:10 4.017137184e-05
8 *0:11 0.0002062676048
9 *0:7 0.0004078111222
10 _23_:CLK 0
11 *0:9 0
12 _24_:CLK 0
*RES
0 _22_:CLK *0:1 5.339285714285714
1 *0:2 *0:3 1.9732142857142856
2 *0:4 *0:2 0.4107142857142857
3 *0:5 *0:4 7.892857142857142
4 *0:6 *0:7 4.553571428571428
5 *0:8 *0:9 3.2857142857142856
6 *0:1 *0:8 0.30357142857142855
7 *0:10 _24_:CLK 0.30357142857142855
8 *0:11 *0:10 2.0535714285714284
9 *0:7 *0:12 4.553571428571428
10 _22_:CLK _22_:CLK 0
11 *0:1 *0:3 0
12 _23_:CLK _23_:CLK 0
13 _23_:CLK *0:7 0
14 *0:9 *0:6 0
15 _24_:CLK _24_:CLK 0
16 *0:11 *0:12 0
*END

*D_NET *1 0.00098409266446
*CONN
*P l_sense I
*I input1:A I
*CAP
13 *1:1 0.00024524937376
14 *1:2 0.0007388432907000001
15 input1:A 0
*RES
17 *1:1 input1:A 2.464285714285714
18 *1:2 *1:3 8.348214285714285
19 input1:A input1:A 0
20 *1:1 *1:2 0
*END

*D_NET *2 0.0007388432907000001
*CONN
*P l_thresh[0] I
*I input2:A I
*CAP
16 *2:1 0.0007388432907000001
17 input2:A 0
*RES
21 *2:1 *2:2 8.348214285714285
22 input2:A input2:A 0
23 input2:A *2:1 0
*END

*D_NET *3 0.00108705459334
*CONN
*P l_thresh[1] I
*I input3:A I
*CAP
18 *3:1 0.0006858781437400002
19 *3:3 0.00040117644959999997
20 input3:A 0
*RES
24 *3:1 *3:2 7.741071428571428
25 *3:3 input3:A 4.107142857142857
26 *3:3 *3:2 0
27 input3:A input3:A 0
*END

*D_NET *4 0.0013643795236200002
*CONN
*P m_sense I
*I input4:A I
*CAP
21 input4:A 0.00044015821855999997
22 *4:2 0.0009242213050600002
23 *4:1 0
*RES
28 input4:A *4:1 4.517857142857142
29 *4:2 *4:3 10.473214285714285
30 input4:A input4:A 0
31 *4:1 *4:2 0
*END

*D_NET *5 0.00040993717191999997
*CONN
*P m_thresh_1 I
*I input5:A I
*CAP
24 *5:1 0.0003596407917
25 *5:3 5.029638022e-05
26 *5:4 0
27 input5:A 0
*RES
32 *5:1 *5:2 0.6125666666666667
33 *5:3 *5:4 0.45535714285714285
34 *5:4 *5:2 0
35 input5:A input5:A 0
36 input5:A *5:3 0
*END

*D_NET *6 0.00046290231888
*CONN
*P m_thresh_2 I
*I input6:A I
*CAP
28 *6:1 0.0003596407917
29 *6:3 0.00010326152718000001
30 *6:4 0
31 input6:A 0
*RES
37 *6:1 *6:2 0.6125666666666667
38 *6:3 *6:4 1.0624999999999998
39 *6:4 *6:2 0
40 input6:A input6:A 0
41 input6:A *6:3 0
*END

*D_NET *7 0.0012558960214600003
*CONN
*P water_time_long I
*I input7:A I
*CAP
32 *7:1 0.00043429369568000003
33 *7:2 4.640188412000001e-05
34 *7:3 0.0006858781437400002
35 input7:A 8.932229792e-05
36 *7:5 0
*RES
42 *7:1 *7:2 4.857142857142857
43 *7:2 *7:3 0.4107142857142857
44 *7:3 *7:4 7.741071428571428
45 input7:A *7:5 0.8214285714285714
46 *7:5 *7:4 0
47 input7:A input7:A 0
*END

*D_NET *8 0.00126576991824
*CONN
*P water_time_short I
*I input8:A I
*CAP
37 input8:A 0.00016728583584
38 *8:2 0.0007388432907000001
39 *8:4 0.0003596407917
40 *8:1 0
*RES
48 input8:A *8:1 1.6428571428571428
49 *8:2 *8:3 8.348214285714285
50 *8:4 *8:5 0.6125666666666667
51 input8:A input8:A 0
52 *8:1 *8:3 0
53 *8:2 *8:4 0
*END

*D_NET *9 0.00054112395924
*CONN
*P water_toggle O
*I output9:X O
*CAP
41 *9:1 2.3813806740000006e-05
42 *9:3 0.0005173101524999999
43 output9:X 0
44 *9:2 0
*RES
54 *9:1 *9:2 0.15178571428571427
55 *9:3 *9:4 0.9008333333333334
56 output9:X output9:X 0
57 output9:X *9:1 0
58 *9:2 *9:3 0
*END

*D_NET *10 0.00076314797084
*CONN
*I _22_:D I
*I _19_:Y O
*CAP
45 _22_:D 5.415396288e-05
46 *10:2 0.00061967171004
47 _19_:Y 8.932229792e-05
48 *10:1 0
49 *10:4 0
*RES
59 _22_:D *10:1 0.4508928571428571
60 *10:2 *10:3 6.982142857142857
61 _19_:Y *10:4 0.8214285714285714
62 _22_:D _22_:D 0
63 *10:1 *10:2 0
64 *10:4 *10:3 0
65 _19_:Y _19_:Y 0
*END

*D_NET *11 0.00053454710392
*CONN
*I _23_:D I
*I _18_:X O
*CAP
50 *11:1 8.084800032e-05
51 *11:2 0.00016946796088000002
52 _18_:X 0.00028423114272
53 _23_:D 0
54 *11:4 0
*RES
66 *11:1 _23_:D 0.732142857142857
67 *11:2 *11:3 1.8214285714285714
68 _18_:X *11:4 2.875
69 _23_:D _23_:D 0
70 *11:1 *11:2 0
71 *11:4 *11:3 0
72 _18_:X _18_:X 0
*END

*D_NET *12 0.0009705560111199999
*CONN
*I _24_:D I
*I _21_:X O
*CAP
55 _24_:D 1.5172193919999998e-05
56 *12:1 0.00059318913656
57 *12:3 0.0003621946806399999
58 _21_:X 0
*RES
73 _24_:D _24_:D 0.040178571428571425
74 *12:1 *12:2 6.678571428571428
75 *12:3 _21_:X 3.6964285714285707
76 _24_:D _24_:D 0
77 _24_:D *12:1 0
78 *12:3 *12:2 0
79 _21_:X _21_:X 0
*END

*D_NET *13 0.0035139992876
*CONN
*I _19_:A I
*I _17_:B1 I
*I _16_:B1 I
*I _13_:A1 I
*I _11_:Y O
*CAP
59 _11_:Y 8.932229792e-05
60 *13:2 0.00014298538739999998
61 _17_:B1 5.034052896000001e-05
62 *13:5 0.00114301966272
63 *13:7 0.0002753982548
64 *13:9 5.034052896000001e-05
65 *13:10 0.00046077626916000004
66 *13:12 0.0002062676048
67 *13:13 4.017137184e-05
68 *13:14 0.00067404883232
69 *13:11 0.00038132854871999994
70 *13:1 0
71 _16_:B1 0
72 *13:6 0
73 _19_:A 0
74 _13_:A1 0
*RES
80 _11_:Y *13:1 0.8214285714285714
81 *13:2 *13:3 1.5178571428571426
82 _17_:B1 *13:4 0.4107142857142857
83 *13:5 *13:4 0.30357142857142855
84 *13:5 *13:6 11.5
85 *13:7 *13:8 3.035714285714285
86 *13:9 _19_:A 0.4107142857142857
87 *13:10 *13:11 5.160714285714286
88 *13:12 *13:5 2.0535714285714284
89 *13:13 _13_:A1 0.30357142857142855
90 *13:14 *13:13 6.982142857142857
91 *13:11 *13:15 4.249999999999999
92 _11_:Y _11_:Y 0
93 *13:1 *13:3 0
94 _16_:B1 _16_:B1 0
95 _16_:B1 *13:2 0
96 _17_:B1 _17_:B1 0
97 *13:6 *13:8 0
98 _11_:Y *13:7 0
99 _19_:A _19_:A 0
100 *13:9 *13:11 0
101 *13:12 *13:10 0
102 _13_:A1 _13_:A1 0
103 *13:14 *13:15 0
*END

*D_NET *14 0.00094585298676
*CONN
*I _13_:A2 I
*I _12_:Y O
*CAP
75 _12_:Y 0.00016728583584
76 *14:2 0.00077856715092
77 *14:1 0
78 _13_:A2 0
*RES
104 _12_:Y *14:1 1.6428571428571428
105 *14:2 *14:3 8.803571428571427
106 _12_:Y _12_:Y 0
107 *14:1 *14:2 0
108 _13_:A2 _13_:A2 0
109 _13_:A2 *14:3 0
*END

*D_NET *15 0.0018423840943199998
*CONN
*I _17_:C1 I
*I _14_:A I
*I _13_:X O
*CAP
79 _17_:C1 4.017137184e-05
80 *15:1 0.0003621946806399999
81 *15:3 0.00075208457744
82 _13_:X 8.932229792e-05
83 *15:6 0.00032321291168
84 *15:7 0.0002753982548
85 *15:2 0
86 *15:5 0
87 _14_:A 0
*RES
110 _17_:C1 *15:1 0.30357142857142855
111 *15:1 *15:2 3.6964285714285707
112 *15:3 *15:4 8.499999999999998
113 _13_:X *15:5 0.8214285714285714
114 *15:6 _14_:A 3.2857142857142856
115 *15:7 *15:3 3.035714285714285
116 _17_:C1 _17_:C1 0
117 *15:2 *15:3 0
118 *15:5 *15:4 0
119 _13_:X _13_:X 0
120 _14_:A _14_:A 0
121 *15:6 *15:7 0
*END

*D_NET *16 0.00186005990748
*CONN
*I _20_:A2 I
*I _19_:B I
*I _18_:A1 I
*I _14_:Y O
*CAP
88 *16:1 8.932229792e-05
89 *16:2 0.00038132854871999994
90 *16:4 0.00012830406688
91 *16:6 0.0005193113593599999
92 _18_:A1 4.017137184e-05
93 *16:8 0.00016728583584
94 *16:3 0.00024891568132000004
95 _19_:B 4.017137184e-05
96 *16:10 0.00024524937376
97 _20_:A2 0
98 _14_:Y 0
*RES
122 *16:1 _20_:A2 0.8214285714285714
123 *16:2 *16:3 4.249999999999999
124 *16:4 *16:5 1.232142857142857
125 *16:6 *16:5 0.30357142857142855
126 *16:6 _14_:Y 4.928571428571428
127 _18_:A1 *16:7 0.30357142857142855
128 *16:8 *16:7 1.6428571428571428
129 *16:3 *16:9 2.7321428571428568
130 _19_:B *16:10 0.30357142857142855
131 *16:10 *16:8 2.464285714285714
132 _20_:A2 _20_:A2 0
133 *16:1 *16:3 0
134 *16:4 *16:2 0
135 _14_:Y _14_:Y 0
136 _18_:A1 _18_:A1 0
137 *16:8 *16:9 0
138 _19_:B _19_:B 0
*END

*D_NET *17 0.0035137419972399997
*CONN
*I _17_:A1 I
*I _16_:A1 I
*I _15_:Y O
*CAP
99 *17:1 0.00012830406688
100 *17:2 5.034052896000001e-05
101 *17:3 0.00038132854871999994
102 *17:5 0.0013277593504
103 *17:7 0.00162600950228
104 _17_:A1 0
105 _16_:A1 0
106 *17:6 0
107 _15_:Y 0
*RES
139 *17:1 _17_:A1 1.232142857142857
140 *17:2 _16_:A1 0.4107142857142857
141 *17:3 *17:4 4.249999999999999
142 *17:5 *17:6 13.142857142857142
143 *17:5 *17:1 0.6071428571428571
144 *17:7 *17:8 18.51785714285714
145 _17_:A1 _17_:A1 0
146 *17:1 *17:7 0
147 _16_:A1 _16_:A1 0
148 *17:2 *17:3 0
149 *17:6 *17:4 0
150 _15_:Y _15_:Y 0
151 _15_:Y *17:8 0
*END

*D_NET *18 0.0020224749896000003
*CONN
*I _20_:B2 I
*I _18_:A2 I
*I _16_:X O
*CAP
108 _20_:B2 4.017137184e-05
109 *18:1 5.034052896000001e-05
110 *18:2 6.898398368e-05
111 *18:3 0.00071303060128
112 *18:5 0.00064615428352
113 *18:7 0.0002062676048
114 *18:8 4.017137184e-05
115 *18:9 5.034052896000001e-05
116 *18:10 4.017137184e-05
117 *18:11 0.00011650281392
118 *18:13 5.034052896000001e-05
119 *18:4 0
120 _16_:X 0
121 _18_:A2 0
*RES
152 _20_:B2 *18:1 0.30357142857142855
153 *18:1 *18:2 0.4107142857142857
154 *18:2 *18:3 0.6071428571428571
155 *18:3 *18:4 7.3928571428571415
156 *18:5 *18:6 7.285714285714286
157 *18:7 _16_:X 2.0535714285714284
158 *18:8 _18_:A2 0.30357142857142855
159 *18:9 *18:8 0.4107142857142857
160 *18:10 *18:9 0.30357142857142855
161 *18:11 *18:12 1.2142857142857142
162 *18:13 *18:3 0.4107142857142857
163 _20_:B2 _20_:B2 0
164 *18:4 *18:6 0
165 *18:7 *18:5 0
166 _16_:X _16_:X 0
167 _18_:A2 _18_:A2 0
168 *18:10 *18:12 0
169 *18:13 *18:11 0
*END

*D_NET *19 0.00261248864308
*CONN
*I _21_:A I
*I _18_:C1 I
*I _17_:X O
*CAP
122 *19:1 8.932229792e-05
123 *19:2 0.00083153229788
124 *19:4 0.00090793944608
125 *19:5 4.017137184e-05
126 _17_:X 0.0003621946806399999
127 *19:7 0.00038132854871999994
128 _18_:C1 0
129 _21_:A 0
130 *19:6 0
*RES
170 *19:1 _18_:C1 0.8214285714285714
171 *19:2 *19:3 9.410714285714285
172 *19:4 *19:5 9.446428571428571
173 *19:5 _21_:A 0.30357142857142855
174 _17_:X *19:6 3.6964285714285707
175 *19:7 *19:2 4.249999999999999
176 _18_:C1 _18_:C1 0
177 *19:1 *19:2 0
178 *19:4 *19:3 0
179 _21_:A _21_:A 0
180 _17_:X _17_:X 0
181 *19:6 *19:7 0
*END

*D_NET *20 0.0018262408336400002
*CONN
*I _21_:B I
*I _20_:X O
*CAP
131 _20_:X 0.0005960852944
132 *20:2 0.0008712561581000002
133 *20:4 0.00030855885217999997
134 _21_:B 5.034052896000001e-05
135 *20:1 0
136 *20:6 0
*RES
182 _20_:X *20:1 6.160714285714286
183 *20:2 *20:3 9.866071428571429
184 *20:4 *20:3 0.4107142857142857
185 *20:4 *20:5 2.883928571428571
186 _21_:B *20:6 0.4107142857142857
187 _20_:X _20_:X 0
188 *20:1 *20:2 0
189 *20:6 *20:5 0
190 _21_:B _21_:B 0
*END

*D_NET *21 0.0010977426718400002
*CONN
*I _22_:Q O
*I _13_:B1 I
*CAP
137 _22_:Q 5.034052896000001e-05
138 *21:2 0.00097718645202
139 *21:3 4.640188412000001e-05
140 *21:4 2.3813806740000006e-05
141 *21:1 0
142 _13_:B1 0
*RES
191 _22_:Q *21:1 0.4107142857142857
192 *21:2 *21:3 11.080357142857142
193 *21:3 *21:4 0.4107142857142857
194 *21:4 *21:5 0.15178571428571427
195 _22_:Q _22_:Q 0
196 *21:1 *21:2 0
197 _13_:B1 _13_:B1 0
198 _13_:B1 *21:5 0
*END

*D_NET *22 0.0018512765980799998
*CONN
*I _23_:Q O
*I _20_:A1 I
*I _18_:B1 I
*I _11_:A I
*CAP
143 *22:1 0.00012830406688
144 *22:2 0.00038132854871999994
145 *22:4 0.00101590519872
146 *22:5 0.0002753982548
147 *22:7 5.034052896000001e-05
148 _23_:Q 0
149 _11_:A 0
150 _20_:A1 0
151 _18_:B1 0
152 *22:8 0
*RES
199 *22:1 _23_:Q 1.232142857142857
200 *22:2 *22:3 4.249999999999999
201 *22:4 _20_:A1 0.6071428571428571
202 *22:4 *22:1 9.857142857142856
203 *22:5 *22:6 3.035714285714285
204 *22:7 *22:8 0.4107142857142857
205 _23_:Q _23_:Q 0
206 *22:1 *22:3 0
207 _11_:A _11_:A 0
208 _11_:A *22:2 0
209 _20_:A1 _20_:A1 0
210 _18_:B1 _18_:B1 0
211 _18_:B1 *22:6 0
212 *22:8 *22:5 0
*END

*D_NET *23 0
*CONN
*I input1:X O
*CAP
*RES
*END

*D_NET *24 0.0016924433270800003
*CONN
*I input2:X O
*I _13_:A3 I
*CAP
153 input2:X 0.0005960852944
154 *24:2 0.0010963580326800002
155 _13_:A3 0
156 *24:1 0
*RES
213 input2:X *24:1 6.160714285714286
214 *24:2 *24:3 12.44642857142857
215 _13_:A3 _13_:A3 0
216 _13_:A3 *24:2 0
217 *24:1 *24:3 0
218 input2:X input2:X 0
*END

*D_NET *25 0.0008328455272799999
*CONN
*I input3:X O
*I _12_:A I
*CAP
157 input3:X 0.00028423114272
158 *25:2 0.00038132854871999994
159 *25:4 0.00016728583584
160 *25:1 0
161 _12_:A 0
*RES
219 input3:X *25:1 2.875
220 *25:2 *25:3 4.249999999999999
221 *25:4 _12_:A 1.6428571428571428
222 input3:X input3:X 0
223 *25:1 *25:2 0
224 *25:4 *25:3 0
225 _12_:A _12_:A 0
*END

*D_NET *26 0.0014447046572800002
*CONN
*I input4:X O
*I _15_:A I
*CAP
162 _15_:A 0.0013757206736000002
163 input4:X 6.898398368e-05
*RES
226 _15_:A input4:X 14.375
227 input4:X input4:X 0.6071428571428571
228 _15_:A _15_:A 0
229 input4:X input4:X 0
*END

*D_NET *27 0.00030896691728
*CONN
*I input5:X O
*I _17_:A2 I
*CAP
164 _17_:A2 5.280127648e-05
165 *27:2 8.932229792e-05
166 *27:3 0.00011650281392
167 input5:X 5.034052896000001e-05
168 *27:5 0
*RES
230 _17_:A2 _17_:A2 0.01339285714285714
231 _17_:A2 *27:1 0.30357142857142855
232 *27:2 *27:1 0.8214285714285714
233 *27:3 *27:4 1.2142857142857142
234 input5:X *27:5 0.4107142857142857
235 _17_:A2 _17_:A2 0
236 *27:2 *27:3 0
237 *27:5 *27:4 0
238 input5:X input5:X 0
*END

*D_NET *28 0.00371921332472
*CONN
*I input6:X O
*I _16_:A2 I
*CAP
169 _16_:A2 0.00028423114272
170 input6:X 0.0015706295183999998
171 *28:3 0.0018643526636000001
172 *28:1 0
173 *28:2 0
*RES
239 _16_:A2 *28:1 2.875
240 input6:X *28:2 16.428571428571427
241 *28:3 *28:4 21.25
242 _16_:A2 _16_:A2 0
243 *28:1 *28:3 0
244 *28:2 *28:4 0
245 input6:X input6:X 0
*END

*D_NET *29 0
*CONN
*I input7:X O
*CAP
*RES
*END

*D_NET *30 0
*CONN
*I input8:X O
*CAP
*RES
*END

*D_NET *31 0.0017614030239600001
*CONN
*I output9:A I
*I _20_:B1 I
*I _24_:Q O
*CAP
174 _24_:Q 8.932229792e-05
175 *31:2 0.00032836340175999997
176 *31:4 0.00082997590816
177 *31:5 0.00051374141612
178 *31:1 0
179 output9:A 0
180 _20_:B1 0
*RES
246 _24_:Q *31:1 0.8214285714285714
247 *31:2 *31:3 3.642857142857143
248 *31:4 output9:A 8.625
249 *31:5 *31:2 5.767857142857142
250 _24_:Q _24_:Q 0
251 *31:1 *31:2 0
252 *31:4 *31:3 0
253 output9:A output9:A 0
254 _20_:B1 _20_:B1 0
255 _20_:B1 *31:5 0
*END

