*SPEF "IEEE 1481-1998"
*DESIGN "fsm"
*DATE "Tue May 04 14:44:47 2021"
*VENDOR "AUC CSCE Department"
*PROGRAM "SPEF Extractor"
*VERSION "1.0"
*DESIGN_FLOW "PIN_CAP NONE"
*DIVIDER /
*DELIMITER :
*BUS_DELIMITER []
*T_UNIT 1.00000 NS
*C_UNIT 1.00000 PF
*R_UNIT 1.00000 OHM
*L_UNIT 1.00000 HENRY


*NAME_MAP
*0 clk
*1 l_sense
*2 l_thresh[0]
*3 l_thresh[1]
*4 m_sense
*5 m_thresh_1
*6 m_thresh_2
*7 water_time_long
*8 water_time_short
*9 water_toggle
*10 _000_
*11 _001_
*12 _002_
*13 _003_
*14 _004_
*15 _005_
*16 _006_
*17 _007_
*18 _008_
*19 _009_
*20 _010_
*21 _011_
*22 _012_
*23 _013_
*24 _014_
*25 _015_
*26 _016_
*27 _017_
*28 _018_
*29 _019_
*30 _020_
*31 _021_
*32 _022_
*33 _023_
*34 _024_
*35 _025_
*36 _026_
*37 _027_
*38 _028_
*39 _029_
*40 _030_
*41 _031_
*42 _032_
*43 _033_
*44 _034_
*45 _035_
*46 _036_
*47 _037_
*48 _038_
*49 _039_
*50 _040_
*51 _041_
*52 _042_
*53 _043_
*54 _044_
*55 _045_
*56 _046_
*57 _047_
*58 _048_
*59 _049_
*60 _050_
*61 _051_
*62 _052_
*63 _053_
*64 _054_
*65 _055_
*66 _056_
*67 _057_
*68 _058_
*69 _059_
*70 _060_
*71 _061_
*72 _062_
*73 _063_
*74 _064_
*75 _065_
*76 _066_
*77 _067_
*78 _068_
*79 _069_
*80 _070_
*81 _071_
*82 _072_
*83 _073_
*84 _074_
*85 _075_
*86 _076_
*87 _077_
*88 _078_
*89 _079_
*90 _080_
*91 _081_
*92 count\[0\]
*93 count\[1\]
*94 count\[2\]
*95 count\[3\]
*96 count\[4\]
*97 count\[5\]
*98 count\[6\]
*99 count\[7\]
*100 state\[0\]
*101 state\[1\]
*102 water_time\[0\]
*103 water_time\[1\]
*104 water_time\[2\]
*105 water_time\[3\]
*106 water_time\[4\]
*107 water_time\[5\]
*108 water_time\[6\]
*109 water_time\[7\]
*110 net1
*111 net2
*112 net3
*113 net4
*114 net5
*115 net6
*116 net7
*117 net8
*118 net9
*119 clknet_0_clk
*120 clknet_1_0_0_clk
*121 clknet_1_1_0_clk

*D_NET *0 0.00447182782002
*CONN
*P clk I
*I clkbuf_0_clk:A I
*CAP
0 *0:1 0.0005402239896
1 *0:2 4.640188412000001e-05
2 *0:3 0.00057994784982
3 *0:5 0.00110284829088
4 *0:7 0.00081829101114
5 *0:8 8.223124824000001e-05
6 clkbuf_0_clk:A 0.00024524937376
7 *0:9 0.00105663417246
8 *0:6 0
9 *0:10 0
*RES
0 *0:1 *0:2 6.07142857142857
1 *0:2 *0:3 0.4107142857142857
2 *0:3 *0:4 6.5267857142857135
3 *0:5 *0:6 11.5
4 *0:7 *0:8 9.25892857142857
5 *0:8 *0:9 0.8214285714285714
6 clkbuf_0_clk:A *0:10 2.464285714285714
7 *0:9 *0:11 11.991071428571427
8 *0:5 *0:4 0
9 *0:6 *0:7 0
10 *0:10 *0:11 0
11 clkbuf_0_clk:A clkbuf_0_clk:A 0
*END

*D_NET *1 0.0007123607172200001
*CONN
*P l_sense I
*I input1:A I
*CAP
10 *1:1 0.0007123607172200001
11 input1:A 0
*RES
12 *1:1 *1:2 8.044642857142856
13 input1:A input1:A 0
14 input1:A *1:1 0
*END

*D_NET *2 0.0008796465530600001
*CONN
*P l_thresh[0] I
*I input2:A I
*CAP
12 *2:1 0.00016728583584
13 *2:2 0.0007123607172200001
14 input2:A 0
*RES
15 *2:1 input2:A 1.6428571428571428
16 *2:2 *2:3 8.044642857142856
17 input2:A input2:A 0
18 *2:1 *2:2 0
*END

*D_NET *3 0.00108705459334
*CONN
*P l_thresh[1] I
*I input3:A I
*CAP
15 *3:1 0.0006858781437400002
16 *3:3 0.00040117644959999997
17 input3:A 0
*RES
19 *3:1 *3:2 7.741071428571428
20 *3:3 input3:A 4.107142857142857
21 *3:3 *3:2 0
22 input3:A input3:A 0
*END

*D_NET *4 0.00163279935878
*CONN
*P m_sense I
*I input4:A I
*CAP
18 input4:A 0.0009469212150399999
19 *4:2 0.0006858781437400002
20 *4:1 0
*RES
23 input4:A *4:1 9.857142857142856
24 *4:2 *4:3 7.741071428571428
25 input4:A input4:A 0
26 *4:1 *4:2 0
*END

*D_NET *5 0.00040993717191999997
*CONN
*P m_thresh_1 I
*I input5:A I
*CAP
21 *5:1 0.0003596407917
22 *5:3 5.029638022e-05
23 *5:4 0
24 input5:A 0
*RES
27 *5:1 *5:2 0.6125666666666667
28 *5:3 *5:4 0.45535714285714285
29 *5:4 *5:2 0
30 input5:A input5:A 0
31 input5:A *5:3 0
*END

*D_NET *6 0.00048938489236
*CONN
*P m_thresh_2 I
*I input6:A I
*CAP
25 *6:1 0.0003596407917
26 *6:3 0.00012974410066
27 *6:4 0
28 input6:A 0
*RES
32 *6:1 *6:2 0.6125666666666667
33 *6:3 *6:4 1.3660714285714284
34 *6:4 *6:2 0
35 input6:A input6:A 0
36 input6:A *6:3 0
*END

*D_NET *7 0.0007752004416600002
*CONN
*P water_time_long I
*I input7:A I
*CAP
29 *7:1 0.0006858781437400002
30 *7:3 8.932229792e-05
31 input7:A 0
*RES
37 *7:1 *7:2 7.741071428571428
38 *7:3 input7:A 0.8214285714285714
39 *7:3 *7:2 0
40 input7:A input7:A 0
*END

*D_NET *8 0.0011071275688400001
*CONN
*P water_time_short I
*I input8:A I
*CAP
32 *8:1 0.00015622667414000004
33 *8:3 0.0009509008947
34 input8:A 0
*RES
41 *8:1 *8:2 1.669642857142857
42 *8:3 *8:4 1.6935666666666669
43 input8:A input8:A 0
44 input8:A *8:2 0
45 *8:1 *8:3 0
*END

*D_NET *9 0.00054112395924
*CONN
*P water_toggle O
*I output9:X O
*CAP
35 *9:1 2.3813806740000006e-05
36 *9:3 0.0005173101524999999
37 output9:X 0
38 *9:2 0
*RES
46 *9:1 *9:2 0.15178571428571427
47 *9:3 *9:4 0.9008333333333334
48 output9:X output9:X 0
49 output9:X *9:1 0
50 *9:2 *9:3 0
*END

*D_NET *10 0.0016332952508400001
*CONN
*I _164_:D I
*I _148_:B1 I
*I _147_:Y O
*CAP
39 *10:1 0.00036719771744000003
40 _147_:Y 0.0005960852944
41 _148_:B1 5.034052896000001e-05
42 *10:4 0.00061967171004
43 _164_:D 0
44 *10:3 0
*RES
51 *10:1 _164_:D 3.3258928571428568
52 *10:1 *10:2 0.30357142857142855
53 _147_:Y *10:2 6.160714285714286
54 _148_:B1 *10:3 0.4107142857142857
55 *10:4 *10:5 6.982142857142857
56 _164_:D _164_:D 0
57 _147_:Y _147_:Y 0
58 _148_:B1 _148_:B1 0
59 *10:3 *10:4 0
60 _164_:D *10:5 0
*END

*D_NET *11 0.00592153603564
*CONN
*I _163_:A1 I
*I _154_:Y O
*CAP
45 *11:1 0.0007256020039600001
46 _163_:A1 0.00519593403168
47 _154_:Y 0
48 *11:3 0
*RES
61 *11:1 *11:2 8.196428571428571
62 _163_:A1 *11:3 54.62499999999999
63 _163_:A1 _163_:A1 0
64 _154_:Y _154_:Y 0
65 _154_:Y *11:1 0
66 *11:3 *11:2 0
*END

*D_NET *12 0.00060962617944
*CONN
*I _162_:A0 I
*I _155_:Y O
*CAP
49 *12:1 0.00016946796088000002
50 _162_:A0 0.00044015821855999997
51 *12:3 0
52 _155_:Y 0
*RES
67 *12:1 *12:2 1.8214285714285714
68 _162_:A0 *12:3 4.517857142857142
69 *12:3 *12:1 0
70 _155_:Y _155_:Y 0
71 _155_:Y *12:2 0
72 _162_:A0 _162_:A0 0
*END

*D_NET *13 0.00049119669004
*CONN
*I _162_:A1 I
*I _156_:Y O
*CAP
53 *13:1 9.002024044000002e-05
54 _162_:A1 0.00040117644959999997
55 _156_:Y 0
56 *13:3 0
*RES
73 *13:1 *13:2 0.9107142857142857
74 _162_:A1 *13:3 4.107142857142857
75 _156_:Y _156_:Y 0
76 _156_:Y *13:1 0
77 *13:3 *13:2 0
78 _162_:A1 _162_:A1 0
*END

*D_NET *14 0.00035222135724000006
*CONN
*I _163_:A0 I
*I _162_:X O
*CAP
57 *14:1 5.034052896000001e-05
58 *14:2 0.00030188082828000006
59 _162_:X 0
60 _163_:A0 0
*RES
79 *14:1 _162_:X 0.4107142857142857
80 *14:2 *14:3 3.339285714285714
81 _162_:X _162_:X 0
82 *14:1 *14:2 0
83 _163_:A0 _163_:A0 0
84 _163_:A0 *14:3 0
*END

*D_NET *15 0.0012806321876
*CONN
*I _163_:X O
*I _157_:A I
*I _143_:B1 I
*CAP
61 *15:1 0.0005960852944
62 _143_:B1 6.898398368e-05
63 *15:2 0.00012830406688
64 *15:3 0.00048725884264
65 _163_:X 0
66 _157_:A 0
67 *15:5 0
*RES
85 *15:1 _163_:X 6.160714285714286
86 _143_:B1 *15:1 0.6071428571428571
87 *15:2 _157_:A 1.232142857142857
88 *15:3 *15:4 5.4642857142857135
89 _163_:X _163_:X 0
90 _143_:B1 _143_:B1 0
91 _157_:A _157_:A 0
92 *15:2 *15:3 0
93 *15:5 *15:4 0
*END

*D_NET *16 0.005523645050400001
*CONN
*I _162_:S I
*I _089_:B I
*I _088_:X O
*CAP
68 *16:1 0.00040117644959999997
69 _162_:S 4.017137184e-05
70 *16:3 0.0026853124414800006
71 _088_:X 0.0002062676048
72 *16:6 0.00071303060128
73 *16:8 0.00016946796088000002
74 *16:9 0.00130821862052
75 _089_:B 0
76 *16:5 0
77 *16:7 0
*RES
94 *16:1 *16:2 4.107142857142857
95 _162_:S *16:2 0.30357142857142855
96 *16:3 *16:4 30.660714285714285
97 _088_:X *16:5 2.0535714285714284
98 *16:6 *16:7 7.3928571428571415
99 *16:8 *16:3 1.8214285714285714
100 *16:9 *16:10 14.874999999999998
101 *16:1 *16:9 0
102 _162_:S _162_:S 0
103 _089_:B _089_:B 0
104 _089_:B *16:3 0
105 *16:5 *16:4 0
106 _088_:X _088_:X 0
107 *16:7 *16:10 0
108 *16:6 *16:8 0
*END

*D_NET *17 0.004796410950600001
*CONN
*I _163_:S I
*I _089_:A I
*I _086_:X O
*CAP
78 *17:1 5.034052896000001e-05
79 *17:2 0.00247345185364
80 _086_:X 0.00016728583584
81 *17:5 0.0010248847529600001
82 *17:7 9.002024044000002e-05
83 *17:8 0.0009904277387600001
84 _163_:S 0
85 _089_:A 0
86 *17:4 0
87 *17:6 0
*RES
109 *17:1 _089_:A 0.4107142857142857
110 *17:2 *17:3 28.232142857142854
111 _086_:X *17:4 1.6428571428571428
112 *17:5 *17:6 10.678571428571429
113 *17:7 *17:2 0.9107142857142857
114 *17:8 *17:9 11.232142857142856
115 _163_:S _163_:S 0
116 _163_:S *17:8 0
117 _089_:A _089_:A 0
118 *17:1 *17:2 0
119 *17:4 *17:3 0
120 _086_:X _086_:X 0
121 *17:6 *17:9 0
122 *17:5 *17:7 0
*END

*D_NET *18 0.0009157133560800001
*CONN
*I _173_:D I
*I _143_:C1 I
*I _142_:Y O
*CAP
88 *18:1 4.017137184e-05
89 *18:2 8.932229792e-05
90 *18:3 0.0004078111222
91 _173_:D 0.0001321175008
92 _142_:Y 5.034052896000001e-05
93 *18:4 0.00019595053436
94 _143_:C1 0
95 *18:5 0
96 *18:6 0
*RES
123 *18:1 _143_:C1 0.30357142857142855
124 *18:2 *18:1 0.8214285714285714
125 *18:3 *18:4 4.553571428571428
126 _173_:D *18:5 1.2723214285714284
127 _142_:Y *18:6 0.4107142857142857
128 *18:4 *18:7 2.1249999999999996
129 _143_:C1 _143_:C1 0
130 *18:2 *18:4 0
131 *18:5 *18:3 0
132 _173_:D _173_:D 0
133 _142_:Y _142_:Y 0
134 *18:6 *18:7 0
*END

*D_NET *19 0.00146026851864
*CONN
*I _174_:D I
*I _143_:A2 I
*I _141_:Y O
*CAP
97 _141_:Y 0.0004791399875199999
98 *19:2 0.00014298538739999998
99 *19:4 0.00032321291168
100 _174_:D 5.415396288e-05
101 *19:6 0.00046077626916000004
102 *19:1 0
103 _143_:A2 0
104 *19:5 0
*RES
135 _141_:Y *19:1 4.928571428571428
136 *19:2 *19:3 1.5178571428571426
137 *19:4 _143_:A2 3.2857142857142856
138 _174_:D *19:5 0.4508928571428571
139 *19:6 *19:2 5.160714285714286
140 _141_:Y _141_:Y 0
141 *19:1 *19:2 0
142 *19:4 *19:3 0
143 _143_:A2 _143_:A2 0
144 _174_:D _174_:D 0
145 *19:5 *19:6 0
*END

*D_NET *20 0.00042149913359999997
*CONN
*I _175_:D I
*I _153_:Y O
*CAP
105 _175_:D 9.313573184e-05
106 *20:2 0.00032836340175999997
107 *20:1 0
108 _153_:Y 0
*RES
146 _175_:D *20:1 0.8616071428571428
147 *20:2 *20:3 3.642857142857143
148 _175_:D _175_:D 0
149 *20:1 *20:2 0
150 _153_:Y _153_:Y 0
151 _153_:Y *20:3 0
*END

*D_NET *21 0.00139152028572
*CONN
*I _176_:D I
*I _158_:Y O
*CAP
109 *21:1 8.084800032e-05
110 *21:2 0.00083153229788
111 _158_:Y 0.0004791399875199999
112 _176_:D 0
113 *21:4 0
*RES
152 *21:1 _176_:D 0.732142857142857
153 *21:2 *21:3 9.410714285714285
154 _158_:Y *21:4 4.928571428571428
155 _176_:D _176_:D 0
156 *21:1 *21:2 0
157 *21:4 *21:3 0
158 _158_:Y _158_:Y 0
*END

*D_NET *22 0.00256487027996
*CONN
*I _177_:D I
*I _123_:S I
*I _105_:B I
*I _100_:X O
*CAP
114 *22:1 0.00032321291168
115 *22:2 0.00014298538739999998
116 _177_:D 1.5172193919999998e-05
117 *22:4 0.00032321291168
118 *22:5 0.0011228406061600002
119 *22:7 0.0002062676048
120 *22:8 0.0004311786643199999
121 _100_:X 0
122 _123_:S 0
123 _105_:B 0
*RES
159 *22:1 _100_:X 3.2857142857142856
160 *22:2 *22:3 1.5178571428571426
161 _177_:D _177_:D 0.040178571428571425
162 *22:4 _123_:S 3.2857142857142856
163 *22:5 *22:6 12.749999999999998
164 *22:7 *22:1 2.0535714285714284
165 *22:8 _105_:B 3.6964285714285707
166 *22:8 _123_:S 0.6071428571428571
167 _100_:X _100_:X 0
168 *22:1 *22:3 0
169 _177_:D *22:2 0
170 _177_:D _177_:D 0
171 _123_:S _123_:S 0
172 *22:4 *22:6 0
173 *22:7 *22:5 0
174 _105_:B _105_:B 0
*END

*D_NET *23 0.00049556533496
*CONN
*I _178_:D I
*I _159_:Y O
*CAP
124 _178_:D 8.084800032e-05
125 *23:2 0.00016946796088000002
126 *23:4 0.00024524937376
127 *23:1 0
128 _159_:Y 0
*RES
175 _178_:D *23:1 0.732142857142857
176 *23:2 *23:3 1.8214285714285714
177 *23:4 _159_:Y 2.464285714285714
178 _178_:D _178_:D 0
179 *23:1 *23:2 0
180 *23:4 *23:3 0
181 _159_:Y _159_:Y 0
*END

*D_NET *24 0.0005108214315199999
*CONN
*I _179_:D I
*I _151_:Y O
*CAP
129 *24:1 0.00016728583584
130 *24:2 0.00032836340175999997
131 _179_:D 1.5172193919999998e-05
132 _151_:Y 0
*RES
182 *24:1 _151_:Y 1.6428571428571428
183 *24:2 *24:3 3.642857142857143
184 _179_:D _179_:D 0.040178571428571425
185 _151_:Y _151_:Y 0
186 *24:1 *24:2 0
187 _179_:D *24:3 0
188 _179_:D _179_:D 0
*END

*D_NET *25 0.0005248048095199999
*CONN
*I _180_:D I
*I _149_:Y O
*CAP
133 *25:1 0.00012830406688
134 *25:2 0.00038132854871999994
135 _180_:D 1.5172193919999998e-05
136 _149_:Y 0
*RES
189 *25:1 _149_:Y 1.232142857142857
190 *25:2 *25:3 4.249999999999999
191 _180_:D _180_:D 0.040178571428571425
192 _149_:Y _149_:Y 0
193 *25:1 *25:2 0
194 _180_:D *25:3 0
195 _180_:D _180_:D 0
*END

*D_NET *26 0.00035362163712
*CONN
*I _165_:D I
*I _157_:Y O
*CAP
137 _157_:Y 5.034052896000001e-05
138 *26:2 0.00022243310784000002
139 *26:4 8.084800032e-05
140 *26:1 0
141 _165_:D 0
*RES
196 _157_:Y *26:1 0.4107142857142857
197 *26:2 *26:3 2.4285714285714284
198 *26:4 _165_:D 0.732142857142857
199 _157_:Y _157_:Y 0
200 *26:1 *26:2 0
201 *26:4 *26:3 0
202 _165_:D _165_:D 0
*END

*D_NET *27 0.001059053399
*CONN
*I _166_:D I
*I _138_:B2 I
*I _137_:Y O
*CAP
142 *27:1 0.00032440251456
143 _138_:B2 1.1782474880000001e-05
144 *27:3 0.00044015821855999997
145 *27:4 7.618713664000001e-05
146 *27:5 0.00014298538739999998
147 *27:7 6.353766696000002e-05
148 *27:2 0
149 _137_:Y 0
150 _166_:D 0
*RES
203 *27:1 *27:2 2.875
204 *27:1 _138_:B2 0.30357142857142855
205 _138_:B2 _138_:B2 0.004464285714285714
206 *27:3 _137_:Y 4.517857142857142
207 *27:4 _166_:D 0.6830357142857142
208 *27:5 *27:6 1.5178571428571426
209 *27:7 *27:5 0.6071428571428571
210 *27:2 *27:7 0
211 _138_:B2 _138_:B2 0
212 *27:3 *27:5 0
213 _137_:Y _137_:Y 0
214 _166_:D _166_:D 0
215 *27:4 *27:6 0
*END

*D_NET *28 0.0008793203070799999
*CONN
*I _167_:D I
*I _138_:A2 I
*I _134_:X O
*CAP
151 _167_:D 0.00073633491968
152 *28:1 0.00014298538739999998
153 _138_:A2 0
154 *28:3 0
155 _134_:X 0
*RES
216 _167_:D _138_:A2 7.638392857142856
217 *28:1 *28:2 1.5178571428571426
218 _138_:A2 _138_:A2 0
219 _167_:D _167_:D 0
220 *28:3 *28:1 0
221 _134_:X _134_:X 0
222 _134_:X *28:2 0
*END

*D_NET *29 0.0002503159612
*CONN
*I _168_:D I
*I _152_:X O
*CAP
156 _168_:D 8.084800032e-05
157 *29:2 0.00016946796088000002
158 *29:1 0
159 _152_:X 0
*RES
223 _168_:D *29:1 0.732142857142857
224 *29:2 *29:3 1.8214285714285714
225 _168_:D _168_:D 0
226 *29:1 *29:2 0
227 _152_:X _152_:X 0
228 _152_:X *29:3 0
*END

*D_NET *30 0.0005605871844399999
*CONN
*I _169_:D I
*I _123_:A0 I
*I _122_:Y O
*CAP
160 *30:1 8.084800032e-05
161 *30:2 0.00016946796088000002
162 *30:4 0.00016728583584
163 *30:5 0.00014298538739999998
164 _169_:D 0
165 _122_:Y 0
166 _123_:A0 0
*RES
229 *30:1 _169_:D 0.732142857142857
230 *30:2 *30:3 1.8214285714285714
231 *30:4 _123_:A0 1.6428571428571428
232 *30:5 *30:2 1.5178571428571426
233 _169_:D _169_:D 0
234 *30:1 *30:2 0
235 _122_:Y _122_:Y 0
236 _122_:Y *30:3 0
237 _123_:A0 _123_:A0 0
238 *30:4 *30:5 0
*END

*D_NET *31 0.00095267136176
*CONN
*I _170_:D I
*I _104_:B I
*I _103_:X O
*CAP
167 *31:1 0.00075201237024
168 _104_:B 6.898398368e-05
169 _170_:D 1.5172193919999998e-05
170 *31:2 0.00011650281392
171 _103_:X 0
172 *31:4 0
*RES
239 *31:1 _103_:X 7.803571428571428
240 _104_:B *31:1 0.6071428571428571
241 _170_:D _170_:D 0.040178571428571425
242 *31:2 *31:3 1.2142857142857142
243 _103_:X _103_:X 0
244 _104_:B _104_:B 0
245 _170_:D _170_:D 0
246 _170_:D *31:3 0
247 *31:4 *31:2 0
*END

*D_NET *32 0.00130251351324
*CONN
*I _171_:D I
*I _119_:A2 I
*I _109_:X O
*CAP
173 *32:1 0.00011650281392
174 _171_:D 0.0006388804972799999
175 *32:4 0.00024524937376
176 *32:5 0.00030188082828000006
177 _109_:X 0
178 *32:3 0
179 _119_:A2 0
*RES
248 *32:1 *32:2 1.2142857142857142
249 _171_:D *32:3 6.611607142857142
250 *32:4 _119_:A2 2.464285714285714
251 *32:5 *32:1 3.339285714285714
252 _109_:X _109_:X 0
253 _109_:X *32:1 0
254 *32:3 *32:2 0
255 _171_:D _171_:D 0
256 _119_:A2 _119_:A2 0
257 *32:4 *32:5 0
*END

*D_NET *33 0.00038251736463999997
*CONN
*I _172_:D I
*I _150_:X O
*CAP
180 *33:1 5.415396288e-05
181 *33:2 0.00032836340175999997
182 _172_:D 0
183 _150_:X 0
*RES
258 *33:1 _172_:D 0.4508928571428571
259 *33:2 *33:3 3.642857142857143
260 _172_:D _172_:D 0
261 *33:1 *33:2 0
262 _150_:X _150_:X 0
263 _150_:X *33:3 0
*END

*D_NET *34 0.00024862031472
*CONN
*I _181_:D I
*I _148_:X O
*CAP
184 *34:1 0.00011650281392
185 _181_:D 0.0001321175008
186 _148_:X 0
187 *34:3 0
*RES
264 *34:1 *34:2 1.2142857142857142
265 _181_:D *34:3 1.2723214285714284
266 _148_:X _148_:X 0
267 _148_:X *34:1 0
268 *34:3 *34:2 0
269 _181_:D _181_:D 0
*END

*D_NET *35 0.00038251736463999997
*CONN
*I _182_:D I
*I _161_:X O
*CAP
188 *35:1 0.00032836340175999997
189 _182_:D 5.415396288e-05
190 _161_:X 0
191 *35:3 0
*RES
270 *35:1 *35:2 3.642857142857143
271 _182_:D *35:3 0.4508928571428571
272 _161_:X _161_:X 0
273 _161_:X *35:1 0
274 *35:3 *35:2 0
275 _182_:D _182_:D 0
*END

*D_NET *36 0.00130750563108
*CONN
*I _145_:A1 I
*I _144_:A I
*I _130_:X O
*CAP
192 _130_:X 0.0003621946806399999
193 _145_:A1 8.932229792e-05
194 *36:3 0.00014298538739999998
195 *36:1 8.932229792e-05
196 *36:6 7.021569086000002e-05
197 *36:9 0.00055346527634
198 *36:2 0
199 *36:5 0
200 _144_:A 0
*RES
276 _130_:X *36:1 3.6964285714285707
277 _145_:A1 *36:2 0.8214285714285714
278 *36:3 *36:4 1.5178571428571426
279 *36:1 *36:5 0.8214285714285714
280 *36:6 *36:7 0.4107142857142857
281 *36:6 *36:8 0.15178571428571427
282 *36:9 *36:7 6.223214285714285
283 *36:1 *36:9 0
284 _130_:X _130_:X 0
285 _145_:A1 _145_:A1 0
286 *36:2 *36:4 0
287 *36:5 *36:3 0
288 _144_:A _144_:A 0
289 _144_:A *36:8 0
*END

*D_NET *37 0.0007140722908399999
*CONN
*I _132_:B I
*I _131_:Y O
*CAP
201 *37:1 0.00019595053436
202 _131_:Y 0.0005181217564799999
203 _132_:B 0
204 *37:3 0
*RES
290 *37:1 *37:2 2.1249999999999996
291 _131_:Y *37:3 5.339285714285714
292 _132_:B _132_:B 0
293 _132_:B *37:1 0
294 *37:3 *37:2 0
295 _131_:Y _131_:Y 0
*END

*D_NET *38 0.0020620388352
*CONN
*I _139_:B I
*I _133_:C I
*I _132_:X O
*CAP
205 _133_:C 2.025677248e-05
206 *38:1 9.002024044000002e-05
207 *38:3 4.017137184e-05
208 *38:5 0.00079218374208
209 *38:7 0.00032321291168
210 _139_:B 4.017137184e-05
211 *38:8 0.00040117644959999997
212 *38:9 0.00035484597524
213 *38:4 0
214 _132_:X 0
*RES
296 _133_:C _133_:C 0.09374999999999999
297 *38:1 *38:2 0.9107142857142857
298 *38:3 *38:4 0.30357142857142855
299 *38:5 *38:3 7.803571428571428
300 *38:5 *38:6 0.30357142857142855
301 *38:7 *38:6 3.2857142857142856
302 _139_:B *38:7 0.30357142857142855
303 *38:8 _132_:X 4.107142857142857
304 *38:9 *38:1 3.946428571428571
305 _133_:C _133_:C 0
306 _133_:C *38:2 0
307 *38:4 *38:1 0
308 _139_:B _139_:B 0
309 _132_:X _132_:X 0
310 *38:8 *38:9 0
*END

*D_NET *39 0.0006580892003200001
*CONN
*I _145_:A2 I
*I _138_:C1 I
*I _133_:X O
*CAP
215 *39:1 0.00016946796088000002
216 *39:3 0.00016728583584
217 _145_:A2 5.034052896000001e-05
218 *39:4 4.017137184e-05
219 *39:5 0.00016728583584
220 *39:7 6.353766696000002e-05
221 _138_:C1 0
222 _133_:X 0
223 *39:6 0
*RES
311 *39:1 *39:2 1.8214285714285714
312 *39:3 _133_:X 1.6428571428571428
313 _145_:A2 *39:4 0.4107142857142857
314 *39:4 *39:5 0.30357142857142855
315 *39:5 *39:6 1.6428571428571428
316 *39:7 *39:1 0.6071428571428571
317 _138_:C1 _138_:C1 0
318 _138_:C1 *39:2 0
319 *39:3 *39:1 0
320 _133_:X _133_:X 0
321 _145_:A2 _145_:A2 0
322 *39:6 *39:7 0
*END

*D_NET *40 0.0016320568564000002
*CONN
*I _141_:B I
*I _138_:B1 I
*I _135_:Y O
*CAP
224 _135_:Y 0.00012949366976
225 *40:2 0.00019595053436
226 *40:4 0.0002062676048
227 *40:6 0.0007256020039600001
228 _138_:B1 5.034052896000001e-05
229 *40:9 0.00032440251456
230 *40:1 0
231 *40:5 0
232 *40:8 0
233 _141_:B 0
*RES
323 _135_:Y *40:1 0.8214285714285714
324 *40:2 *40:3 2.1249999999999996
325 *40:4 *40:5 2.0535714285714284
326 *40:6 *40:7 8.196428571428571
327 _138_:B1 *40:8 0.4107142857142857
328 *40:9 _141_:B 0.30357142857142855
329 *40:9 _135_:Y 2.875
330 _135_:Y _135_:Y 0.30357142857142855
331 _135_:Y _135_:Y 0
332 *40:1 *40:2 0
333 *40:4 *40:3 0
334 *40:5 *40:6 0
335 *40:8 *40:7 0
336 _138_:B1 _138_:B1 0
337 _141_:B _141_:B 0
*END

*D_NET *41 0.0011920569996000001
*CONN
*I _143_:A1 I
*I _137_:A I
*I _136_:Y O
*CAP
234 *41:1 0.00030188082828000006
235 *41:3 0.00044015821855999997
236 _143_:A1 9.779659552000001e-05
237 *41:5 5.034052896000001e-05
238 *41:2 0.00030188082828000006
239 _136_:Y 0
240 *41:4 0
241 _137_:A 0
*RES
338 *41:1 *41:2 3.339285714285714
339 *41:3 *41:4 4.517857142857142
340 _143_:A1 *41:3 0.9107142857142857
341 *41:5 _137_:A 0.4107142857142857
342 *41:2 *41:6 3.339285714285714
343 _136_:Y _136_:Y 0
344 _136_:Y *41:2 0
345 *41:4 *41:1 0
346 _143_:A1 _143_:A1 0
347 _137_:A _137_:A 0
348 *41:5 *41:6 0
*END

*D_NET *42 0.00016946796088000002
*CONN
*I _145_:B1 I
*I _138_:X O
*CAP
242 *42:1 0.00016946796088000002
243 _145_:B1 0
244 _138_:X 0
*RES
349 *42:1 *42:2 1.8214285714285714
350 _145_:B1 _145_:B1 0
351 _145_:B1 *42:1 0
352 _138_:X _138_:X 0
353 _138_:X *42:2 0
*END

*D_NET *43 0.0005970282380400001
*CONN
*I _158_:A I
*I _140_:B I
*I _139_:X O
*CAP
245 *43:1 8.932229792e-05
246 *43:2 0.00011650281392
247 *43:4 8.932229792e-05
248 *43:5 0.00030188082828000006
249 _139_:X 0
250 _140_:B 0
251 _158_:A 0
*RES
354 *43:1 _139_:X 0.8214285714285714
355 *43:2 *43:3 1.2142857142857142
356 *43:4 _158_:A 0.8214285714285714
357 *43:5 *43:2 3.339285714285714
358 _139_:X _139_:X 0
359 *43:1 *43:2 0
360 _140_:B _140_:B 0
361 _140_:B *43:3 0
362 _158_:A _158_:A 0
363 *43:4 *43:5 0
*END

*D_NET *44 0.00123521157976
*CONN
*I _145_:C1 I
*I _144_:B I
*I _140_:X O
*CAP
252 _140_:X 0.00055710352544
253 *44:1 5.034052896000001e-05
254 _145_:C1 4.017137184e-05
255 *44:3 0.0002062676048
256 *44:4 0.00038132854871999994
257 *44:2 0
258 _144_:B 0
*RES
364 _140_:X _145_:C1 5.75
365 *44:1 *44:2 0.4107142857142857
366 _145_:C1 *44:1 0.30357142857142855
367 *44:3 _144_:B 2.0535714285714284
368 *44:4 *44:5 4.249999999999999
369 _145_:C1 _145_:C1 0
370 _140_:X _140_:X 0
371 *44:2 *44:4 0
372 *44:3 *44:5 0
373 _144_:B _144_:B 0
*END

*D_NET *45 0.0010235329415200002
*CONN
*I _144_:C I
*I _143_:X O
*CAP
259 *45:1 8.932229792e-05
260 *45:2 0.00018270924762000003
261 *45:3 8.223124824000001e-05
262 _144_:C 8.932229792e-05
263 *45:4 0.00057994784982
264 _143_:X 0
265 *45:5 0
*RES
374 *45:1 _143_:X 0.8214285714285714
375 *45:2 *45:3 1.9732142857142856
376 *45:3 *45:4 0.8214285714285714
377 _144_:C *45:5 0.8214285714285714
378 *45:4 *45:6 6.5267857142857135
379 _143_:X _143_:X 0
380 *45:1 *45:2 0
381 *45:5 *45:6 0
382 _144_:C _144_:C 0
*END

*D_NET *46 0.0004601871098800001
*CONN
*I _145_:B2 I
*I _144_:Y O
*CAP
266 _145_:B2 6.898398368e-05
267 *46:1 8.932229792e-05
268 *46:3 0.00030188082828000006
269 *46:2 0
270 _144_:Y 0
*RES
383 _145_:B2 *46:1 0.6071428571428571
384 *46:1 *46:2 0.8214285714285714
385 *46:3 *46:4 3.339285714285714
386 _145_:B2 _145_:B2 0
387 *46:2 *46:3 0
388 _144_:Y _144_:Y 0
389 _144_:Y *46:4 0
*END

*D_NET *47 0.0014406314879200001
*CONN
*I _146_:C I
*I _145_:X O
*CAP
271 *47:1 0.0014406314879200001
272 _145_:X 0
273 _146_:C 0
*RES
390 *47:1 *47:2 16.392857142857142
391 _145_:X _145_:X 0
392 _145_:X *47:1 0
393 _146_:C _146_:C 0
394 _146_:C *47:2 0
*END

*D_NET *48 0.00077856715092
*CONN
*I _148_:A3 I
*I _146_:X O
*CAP
274 *48:1 0.00077856715092
275 _146_:X 0
276 _148_:A3 0
*RES
395 *48:1 *48:2 8.803571428571427
396 _146_:X _146_:X 0
397 _146_:X *48:1 0
398 _148_:A3 _148_:A3 0
399 _148_:A3 *48:2 0
*END

*D_NET *49 0.00033675379672000005
*CONN
*I _161_:B I
*I _160_:X O
*CAP
277 *49:1 0.00016946796088000002
278 _160_:X 0.00016728583584
279 _161_:B 0
280 *49:3 0
*RES
400 *49:1 *49:2 1.8214285714285714
401 _160_:X *49:3 1.6428571428571428
402 _161_:B _161_:B 0
403 _161_:B *49:1 0
404 *49:3 *49:2 0
405 _160_:X _160_:X 0
*END

*D_NET *50 0.0008169354738
*CONN
*I _088_:A1 I
*I _086_:A1 I
*I _082_:Y O
*CAP
281 _088_:A1 0.0003621946806399999
282 *50:2 0.00016946796088000002
283 _086_:A1 8.932229792e-05
284 *50:5 0.00019595053436
285 *50:1 0
286 _082_:Y 0
287 *50:4 0
*RES
406 _088_:A1 *50:1 3.6964285714285707
407 *50:2 *50:3 1.8214285714285714
408 _086_:A1 *50:4 0.8214285714285714
409 *50:5 *50:6 2.1249999999999996
410 _088_:A1 _088_:A1 0
411 *50:1 *50:2 0
412 _082_:Y _082_:Y 0
413 _082_:Y *50:3 0
414 _086_:A1 _086_:A1 0
415 *50:4 *50:5 0
416 _088_:A1 *50:6 0
*END

*D_NET *51 0.0023441545513600004
*CONN
*I _147_:A I
*I _088_:B1 I
*I _086_:B1 I
*I _085_:A1 I
*I _083_:Y O
*CAP
288 *51:1 0.00016946796088000002
289 *51:3 0.0004023660524799999
290 _147_:A 5.034052896000001e-05
291 _088_:B1 4.017137184e-05
292 *51:7 0.0003621946806399999
293 *51:2 0.00048725884264
294 *51:9 0.00071303060128
295 *51:10 5.034052896000001e-05
296 *51:11 6.898398368e-05
297 _085_:A1 0
298 *51:4 0
299 _083_:Y 0
300 _086_:B1 0
*RES
417 *51:1 *51:2 1.8214285714285714
418 *51:3 *51:4 3.6964285714285707
419 *51:3 *51:5 0.30357142857142855
420 _147_:A *51:5 0.4107142857142857
421 _088_:B1 *51:6 0.30357142857142855
422 *51:7 *51:6 3.6964285714285707
423 *51:2 *51:8 5.4642857142857135
424 *51:9 _083_:Y 7.3928571428571415
425 *51:10 _086_:B1 0.4107142857142857
426 *51:11 *51:10 0.6071428571428571
427 _085_:A1 _085_:A1 0
428 _085_:A1 *51:1 0
429 *51:4 *51:2 0
430 _147_:A _147_:A 0
431 _088_:B1 _088_:B1 0
432 *51:7 *51:8 0
433 _083_:Y _083_:Y 0
434 *51:9 *51:12 0
435 _086_:B1 _086_:B1 0
*END

*D_NET *52 0.0044536085912
*CONN
*I _085_:A2 I
*I _084_:Y O
*CAP
301 _084_:Y 0.00044015821855999997
302 *52:2 4.640188412000001e-05
303 *52:3 0.00065939557026
304 *52:5 0.00330765291826
305 *52:1 0
306 _085_:A2 0
*RES
436 _084_:Y *52:1 4.517857142857142
437 *52:2 *52:3 0.4107142857142857
438 *52:3 *52:4 7.437499999999999
439 *52:5 *52:2 37.794642857142854
440 _084_:Y _084_:Y 0
441 *52:1 *52:5 0
442 _085_:A2 _085_:A2 0
443 _085_:A2 *52:4 0
*END

*D_NET *53 0.00075488198936
*CONN
*I _087_:A I
*I _086_:C1 I
*I _085_:X O
*CAP
307 *53:1 0.00016728583584
308 *53:2 0.00038132854871999994
309 _087_:A 0.0002062676048
310 _085_:X 0
311 _086_:C1 0
*RES
444 *53:1 _087_:A 1.6428571428571428
445 *53:2 *53:3 4.249999999999999
446 _087_:A _086_:C1 2.0535714285714284
447 _087_:A _087_:A 0
448 *53:1 *53:3 0
449 _085_:X _085_:X 0
450 _085_:X *53:2 0
451 _086_:C1 _086_:C1 0
*END

*D_NET *54 0.0018747311906800001
*CONN
*I _160_:A2 I
*I _147_:B I
*I _088_:C1 I
*I _087_:Y O
*CAP
312 *54:1 0.00061967171004
313 *54:3 0.00028423114272
314 _087_:Y 0.00032321291168
315 _147_:B 0.0005181217564799999
316 *54:6 0.00012949366976
317 _088_:C1 0
318 _160_:A2 0
319 *54:4 0
320 *54:7 0
*RES
452 *54:1 *54:2 6.982142857142857
453 *54:3 _160_:A2 2.875
454 _087_:Y *54:4 3.2857142857142856
455 _147_:B *54:5 5.339285714285714
456 *54:6 *54:5 0.30357142857142855
457 *54:6 *54:7 0.8214285714285714
458 _088_:C1 _088_:C1 0
459 _088_:C1 *54:2 0
460 *54:3 *54:1 0
461 _160_:A2 _160_:A2 0
462 _087_:Y _087_:Y 0
463 *54:4 *54:8 0
464 _147_:B _147_:B 0
465 *54:7 *54:9 0
*END

*D_NET *55 0.00265690372628
*CONN
*I _115_:A I
*I _112_:A I
*I _099_:A I
*I _090_:A I
*I _089_:X O
*CAP
321 *55:1 0.00043429369568000003
322 *55:3 8.932229792e-05
323 _099_:A 4.017137184e-05
324 *55:4 0.00032321291168
325 *55:6 0.00023626981952
326 *55:7 4.017137184e-05
327 _112_:A 0.0003621946806399999
328 *55:9 4.017137184e-05
329 *55:2 0.00014298538739999998
330 _115_:A 4.017137184e-05
331 *55:11 0.00090793944608
332 _090_:A 0
333 _089_:X 0
334 *55:12 0
*RES
466 *55:1 *55:2 4.857142857142857
467 *55:3 _089_:X 0.8214285714285714
468 _099_:A *55:4 0.30357142857142855
469 *55:4 *55:5 3.2857142857142856
470 *55:6 *55:5 0.6071428571428571
471 *55:6 *55:7 1.6428571428571428
472 *55:7 *55:3 0.30357142857142855
473 _112_:A *55:8 3.6964285714285707
474 *55:9 *55:8 0.30357142857142855
475 *55:2 *55:10 1.5178571428571426
476 _115_:A *55:11 0.30357142857142855
477 *55:11 *55:12 9.446428571428571
478 _090_:A _090_:A 0
479 _090_:A *55:2 0
480 *55:3 *55:1 0
481 _089_:X _089_:X 0
482 _099_:A _099_:A 0
483 _112_:A _112_:A 0
484 *55:9 *55:10 0
485 _115_:A _115_:A 0
486 *55:12 *55:13 0
*END

*D_NET *56 0.004784524487960001
*CONN
*I _161_:A I
*I _137_:B I
*I _122_:B I
*I _121_:A2 I
*I _096_:A I
*I _090_:X O
*CAP
335 *56:1 0.00044015821855999997
336 *56:2 4.017137184e-05
337 _090_:X 0.00028423114272
338 *56:4 6.898398368e-05
339 *56:5 0.00044015821855999997
340 *56:6 0.00043429369568000003
341 *56:8 0.00012830406688
342 *56:9 0.0009109800183200002
343 _161_:A 0.00016728583584
344 *56:10 0.00016946796088000002
345 _121_:A2 0.00086895767712
346 *56:14 0.00083153229788
347 _137_:B 0
348 *56:3 0
349 _096_:A 0
350 _122_:B 0
351 *56:15 0
352 *56:11 0
353 *56:13 0
*RES
487 *56:1 *56:2 4.517857142857142
488 *56:2 _137_:B 0.30357142857142855
489 _090_:X *56:3 2.875
490 *56:4 _096_:A 0.6071428571428571
491 *56:5 *56:4 4.517857142857142
492 *56:6 *56:7 4.857142857142857
493 *56:8 _122_:B 1.232142857142857
494 *56:9 *56:10 10.321428571428571
495 _161_:A *56:11 1.6428571428571428
496 *56:10 *56:12 1.8214285714285714
497 _121_:A2 *56:13 9.035714285714285
498 *56:14 *56:6 9.410714285714285
499 *56:1 *56:14 0
500 _137_:B _137_:B 0
501 _090_:X _090_:X 0
502 *56:3 *56:6 0
503 _096_:A _096_:A 0
504 *56:5 *56:7 0
505 _122_:B _122_:B 0
506 *56:8 *56:10 0
507 *56:15 *56:9 0
508 _161_:A _161_:A 0
509 *56:11 *56:12 0
510 _121_:A2 _121_:A2 0
511 *56:13 *56:16 0
*END

*D_NET *57 0.0034483856406
*CONN
*I _132_:A I
*I _100_:A2 I
*I _092_:B I
*I _091_:X O
*CAP
354 _091_:X 0.00055710352544
355 *57:2 0.00016946796088000002
356 *57:4 4.640188412000001e-05
357 *57:5 0.00034160468850000003
358 *57:7 0.00032321291168
359 _100_:A2 6.898398368e-05
360 *57:9 0.0009379416608
361 *57:3 0.0010036690255000001
362 _132_:A 0
363 *57:1 0
364 _092_:B 0
365 *57:10 0
*RES
512 _091_:X *57:1 5.75
513 *57:2 *57:3 1.8214285714285714
514 *57:4 *57:5 0.4107142857142857
515 *57:5 *57:6 3.7946428571428568
516 *57:7 *57:8 3.2857142857142856
517 _100_:A2 *57:8 0.6071428571428571
518 *57:9 _092_:B 0.6071428571428571
519 *57:9 *57:10 9.035714285714285
520 *57:3 *57:4 11.383928571428571
521 _132_:A _132_:A 0
522 _132_:A *57:3 0
523 _091_:X _091_:X 0
524 *57:1 *57:2 0
525 *57:7 *57:6 0
526 _100_:A2 _100_:A2 0
527 _092_:B _092_:B 0
528 *57:10 *57:11 0
*END

*D_NET *58 0.0016732472891200002
*CONN
*I _100_:B1 I
*I _093_:A I
*I _092_:Y O
*CAP
366 *58:1 0.00044134782144
367 *58:2 0.00024524937376
368 *58:3 0.00011650281392
369 _092_:Y 0.00082997590816
370 *58:6 4.017137184e-05
371 _100_:B1 0
372 *58:5 0
373 _093_:A 0
*RES