* NGSPICE file created from fsm.ext - technology: sky130A

* Black-box entry subcircuit for sky130_fd_sc_hd__decap_8 abstract view
.subckt sky130_fd_sc_hd__decap_8 VGND VNB VPB VPWR
.ends

* Black-box entry subcircuit for sky130_fd_sc_hd__decap_4 abstract view
.subckt sky130_fd_sc_hd__decap_4 VGND VNB VPB VPWR
.ends

* Black-box entry subcircuit for sky130_fd_sc_hd__decap_12 abstract view
.subckt sky130_fd_sc_hd__decap_12 VGND VNB VPB VPWR
.ends

* Black-box entry subcircuit for sky130_fd_sc_hd__fill_1 abstract view
.subckt sky130_fd_sc_hd__fill_1 VGND VNB VPB VPWR
.ends

* Black-box entry subcircuit for sky130_fd_sc_hd__decap_6 abstract view
.subckt sky130_fd_sc_hd__decap_6 VGND VNB VPB VPWR
.ends

* Black-box entry subcircuit for sky130_fd_sc_hd__a31oi_1 abstract view
.subckt sky130_fd_sc_hd__a31oi_1 A1 A2 A3 B1 VGND VNB VPB VPWR Y
.ends

* Black-box entry subcircuit for sky130_fd_sc_hd__inv_2 abstract view
.subckt sky130_fd_sc_hd__inv_2 A VGND VNB VPB VPWR Y
.ends

* Black-box entry subcircuit for sky130_fd_sc_hd__tapvpwrvgnd_1 abstract view
.subckt sky130_fd_sc_hd__tapvpwrvgnd_1 VGND VPWR
.ends

* Black-box entry subcircuit for sky130_fd_sc_hd__or2_1 abstract view
.subckt sky130_fd_sc_hd__or2_1 A B VGND VNB VPB VPWR X
.ends

* Black-box entry subcircuit for sky130_fd_sc_hd__decap_3 abstract view
.subckt sky130_fd_sc_hd__decap_3 VGND VNB VPB VPWR
.ends

* Black-box entry subcircuit for sky130_fd_sc_hd__fill_2 abstract view
.subckt sky130_fd_sc_hd__fill_2 VGND VNB VPB VPWR
.ends

* Black-box entry subcircuit for sky130_fd_sc_hd__clkbuf_2 abstract view
.subckt sky130_fd_sc_hd__clkbuf_2 A VGND VNB VPB VPWR X
.ends

* Black-box entry subcircuit for sky130_fd_sc_hd__and3_1 abstract view
.subckt sky130_fd_sc_hd__and3_1 A B C VGND VNB VPB VPWR X
.ends

* Black-box entry subcircuit for sky130_fd_sc_hd__o2bb2a_1 abstract view
.subckt sky130_fd_sc_hd__o2bb2a_1 A1_N A2_N B1 B2 VGND VNB VPB VPWR X
.ends

* Black-box entry subcircuit for sky130_fd_sc_hd__dfxtp_1 abstract view
.subckt sky130_fd_sc_hd__dfxtp_1 CLK D VGND VNB VPB VPWR Q
.ends

* Black-box entry subcircuit for sky130_fd_sc_hd__clkbuf_16 abstract view
.subckt sky130_fd_sc_hd__clkbuf_16 A VGND VNB VPB VPWR X
.ends

* Black-box entry subcircuit for sky130_fd_sc_hd__nor2_1 abstract view
.subckt sky130_fd_sc_hd__nor2_1 A B VGND VNB VPB VPWR Y
.ends

* Black-box entry subcircuit for sky130_fd_sc_hd__a31o_1 abstract view
.subckt sky130_fd_sc_hd__a31o_1 A1 A2 A3 B1 VGND VNB VPB VPWR X
.ends

* Black-box entry subcircuit for sky130_fd_sc_hd__o21ai_1 abstract view
.subckt sky130_fd_sc_hd__o21ai_1 A1 A2 B1 VGND VNB VPB VPWR Y
.ends

* Black-box entry subcircuit for sky130_fd_sc_hd__mux2_1 abstract view
.subckt sky130_fd_sc_hd__mux2_1 A0 A1 S VGND VNB VPB VPWR X
.ends

* Black-box entry subcircuit for sky130_fd_sc_hd__nand2_1 abstract view
.subckt sky130_fd_sc_hd__nand2_1 A B VGND VNB VPB VPWR Y
.ends

* Black-box entry subcircuit for sky130_fd_sc_hd__or3_1 abstract view
.subckt sky130_fd_sc_hd__or3_1 A B C VGND VNB VPB VPWR X
.ends

* Black-box entry subcircuit for sky130_fd_sc_hd__buf_1 abstract view
.subckt sky130_fd_sc_hd__buf_1 A VGND VNB VPB VPWR X
.ends

* Black-box entry subcircuit for sky130_fd_sc_hd__o221a_1 abstract view
.subckt sky130_fd_sc_hd__o221a_1 A1 A2 B1 B2 C1 VGND VNB VPB VPWR X
.ends

* Black-box entry subcircuit for sky130_fd_sc_hd__nand3_1 abstract view
.subckt sky130_fd_sc_hd__nand3_1 A B C VGND VNB VPB VPWR Y
.ends

* Black-box entry subcircuit for sky130_fd_sc_hd__a21oi_1 abstract view
.subckt sky130_fd_sc_hd__a21oi_1 A1 A2 B1 VGND VNB VPB VPWR Y
.ends

* Black-box entry subcircuit for sky130_fd_sc_hd__and4_1 abstract view
.subckt sky130_fd_sc_hd__and4_1 A B C D VGND VNB VPB VPWR X
.ends

* Black-box entry subcircuit for sky130_fd_sc_hd__o21a_1 abstract view
.subckt sky130_fd_sc_hd__o21a_1 A1 A2 B1 VGND VNB VPB VPWR X
.ends

* Black-box entry subcircuit for sky130_fd_sc_hd__a211o_1 abstract view
.subckt sky130_fd_sc_hd__a211o_1 A1 A2 B1 C1 VGND VNB VPB VPWR X
.ends

* Black-box entry subcircuit for sky130_fd_sc_hd__and2_1 abstract view
.subckt sky130_fd_sc_hd__and2_1 A B VGND VNB VPB VPWR X
.ends

* Black-box entry subcircuit for sky130_fd_sc_hd__or3b_2 abstract view
.subckt sky130_fd_sc_hd__or3b_2 A B C_N VGND VNB VPB VPWR X
.ends

* Black-box entry subcircuit for sky130_fd_sc_hd__clkbuf_1 abstract view
.subckt sky130_fd_sc_hd__clkbuf_1 A VGND VNB VPB VPWR X
.ends

* Black-box entry subcircuit for sky130_fd_sc_hd__o21bai_1 abstract view
.subckt sky130_fd_sc_hd__o21bai_1 A1 A2 B1_N VGND VNB VPB VPWR Y
.ends

* Black-box entry subcircuit for sky130_fd_sc_hd__o211a_1 abstract view
.subckt sky130_fd_sc_hd__o211a_1 A1 A2 B1 C1 VGND VNB VPB VPWR X
.ends

* Black-box entry subcircuit for sky130_fd_sc_hd__or2_2 abstract view
.subckt sky130_fd_sc_hd__or2_2 A B VGND VNB VPB VPWR X
.ends

* Black-box entry subcircuit for sky130_fd_sc_hd__a221o_1 abstract view
.subckt sky130_fd_sc_hd__a221o_1 A1 A2 B1 B2 C1 VGND VNB VPB VPWR X
.ends

* Black-box entry subcircuit for sky130_fd_sc_hd__a2111o_1 abstract view
.subckt sky130_fd_sc_hd__a2111o_1 A1 A2 B1 C1 D1 VGND VNB VPB VPWR X
.ends

* Black-box entry subcircuit for sky130_fd_sc_hd__o2bb2ai_1 abstract view
.subckt sky130_fd_sc_hd__o2bb2ai_1 A1_N A2_N B1 B2 VGND VNB VPB VPWR Y
.ends

.subckt fsm clk l_sense l_thresh[0] l_thresh[1] m_sense m_thresh_1 m_thresh_2 water_time_long
+ water_time_short water_toggle VPWR VGND
XFILLER_39_277 VGND VGND VPWR VPWR sky130_fd_sc_hd__decap_8
XFILLER_22_111 VGND VGND VPWR VPWR sky130_fd_sc_hd__decap_4
XFILLER_22_144 VGND VGND VPWR VPWR sky130_fd_sc_hd__decap_12
XFILLER_26_30 VGND VGND VPWR VPWR sky130_fd_sc_hd__decap_12
XFILLER_9_115 VGND VGND VPWR VPWR sky130_fd_sc_hd__decap_4
XFILLER_36_225 VGND VGND VPWR VPWR sky130_fd_sc_hd__decap_12
XFILLER_36_258 VGND VGND VPWR VPWR sky130_fd_sc_hd__decap_12
XFILLER_10_103 VGND VGND VPWR VPWR sky130_fd_sc_hd__fill_1
XFILLER_12_54 VGND VGND VPWR VPWR sky130_fd_sc_hd__decap_12
XFILLER_12_87 VGND VGND VPWR VPWR sky130_fd_sc_hd__decap_12
XFILLER_18_225 VGND VGND VPWR VPWR sky130_fd_sc_hd__decap_12
XFILLER_18_258 VGND VGND VPWR VPWR sky130_fd_sc_hd__decap_12
XFILLER_37_51 VGND VGND VPWR VPWR sky130_fd_sc_hd__decap_6
XFILLER_5_162 VGND VGND VPWR VPWR sky130_fd_sc_hd__decap_8
XFILLER_5_140 VGND VGND VPWR VPWR sky130_fd_sc_hd__decap_4
XFILLER_5_184 VGND VGND VPWR VPWR sky130_fd_sc_hd__decap_12
XFILLER_32_294 VGND VGND VPWR VPWR sky130_fd_sc_hd__decap_4
X_131_ _125_/X _173_/Q _175_/Q _176_/Q VGND VGND VPWR VPWR _132_/B sky130_fd_sc_hd__a31oi_1
XFILLER_23_42 VGND VGND VPWR VPWR sky130_fd_sc_hd__decap_12
XFILLER_2_187 VGND VGND VPWR VPWR sky130_fd_sc_hd__decap_12
XFILLER_14_294 VGND VGND VPWR VPWR sky130_fd_sc_hd__decap_4
XFILLER_47_139 VGND VGND VPWR VPWR sky130_fd_sc_hd__decap_12
XFILLER_47_106 VGND VGND VPWR VPWR sky130_fd_sc_hd__decap_8
XFILLER_18_42 VGND VGND VPWR VPWR sky130_fd_sc_hd__decap_12
XFILLER_11_220 VGND VGND VPWR VPWR sky130_fd_sc_hd__decap_8
XFILLER_11_253 VGND VGND VPWR VPWR sky130_fd_sc_hd__decap_12
XFILLER_34_30 VGND VGND VPWR VPWR sky130_fd_sc_hd__decap_12
XFILLER_50_95 VGND VGND VPWR VPWR sky130_fd_sc_hd__decap_12
XFILLER_11_286 VGND VGND VPWR VPWR sky130_fd_sc_hd__decap_12
X_114_ _114_/A VGND VGND VPWR VPWR _114_/Y sky130_fd_sc_hd__inv_2
XFILLER_29_106 VGND VGND VPWR VPWR sky130_fd_sc_hd__decap_8
XFILLER_29_139 VGND VGND VPWR VPWR sky130_fd_sc_hd__decap_12
XFILLER_37_172 VGND VGND VPWR VPWR sky130_fd_sc_hd__decap_12
XFILLER_4_249 VGND VGND VPWR VPWR sky130_fd_sc_hd__decap_8
XFILLER_20_54 VGND VGND VPWR VPWR sky130_fd_sc_hd__decap_12
XFILLER_20_87 VGND VGND VPWR VPWR sky130_fd_sc_hd__decap_12
XFILLER_45_51 VGND VGND VPWR VPWR sky130_fd_sc_hd__decap_6
XPHY_362 VGND VPWR sky130_fd_sc_hd__tapvpwrvgnd_1
XPHY_351 VGND VPWR sky130_fd_sc_hd__tapvpwrvgnd_1
XPHY_340 VGND VPWR sky130_fd_sc_hd__tapvpwrvgnd_1
XFILLER_6_78 VGND VGND VPWR VPWR sky130_fd_sc_hd__decap_8
XFILLER_13_3 VGND VGND VPWR VPWR sky130_fd_sc_hd__decap_12
XFILLER_19_172 VGND VGND VPWR VPWR sky130_fd_sc_hd__decap_12
XFILLER_1_208 VGND VGND VPWR VPWR sky130_fd_sc_hd__decap_12
XFILLER_40_156 VGND VGND VPWR VPWR sky130_fd_sc_hd__decap_12
XFILLER_40_123 VGND VGND VPWR VPWR sky130_fd_sc_hd__decap_12
XFILLER_48_201 VGND VGND VPWR VPWR sky130_fd_sc_hd__decap_12
XFILLER_0_274 VGND VGND VPWR VPWR sky130_fd_sc_hd__decap_8
XPHY_170 VGND VPWR sky130_fd_sc_hd__tapvpwrvgnd_1
XFILLER_16_131 VGND VGND VPWR VPWR sky130_fd_sc_hd__fill_1
XPHY_181 VGND VPWR sky130_fd_sc_hd__tapvpwrvgnd_1
XPHY_192 VGND VPWR sky130_fd_sc_hd__tapvpwrvgnd_1
XFILLER_22_156 VGND VGND VPWR VPWR sky130_fd_sc_hd__decap_12
XFILLER_26_42 VGND VGND VPWR VPWR sky130_fd_sc_hd__decap_12
XFILLER_42_30 VGND VGND VPWR VPWR sky130_fd_sc_hd__decap_12
XFILLER_36_237 VGND VGND VPWR VPWR sky130_fd_sc_hd__decap_12
XFILLER_44_270 VGND VGND VPWR VPWR sky130_fd_sc_hd__decap_12
XFILLER_50_262 VGND VGND VPWR VPWR sky130_fd_sc_hd__decap_12
XFILLER_10_137 VGND VGND VPWR VPWR sky130_fd_sc_hd__decap_6
XFILLER_12_66 VGND VGND VPWR VPWR sky130_fd_sc_hd__decap_12
XFILLER_12_99 VGND VGND VPWR VPWR sky130_fd_sc_hd__fill_1
XFILLER_18_237 VGND VGND VPWR VPWR sky130_fd_sc_hd__decap_12
XFILLER_26_270 VGND VGND VPWR VPWR sky130_fd_sc_hd__decap_12
XFILLER_33_229 VGND VGND VPWR VPWR sky130_fd_sc_hd__decap_12
XFILLER_5_196 VGND VGND VPWR VPWR sky130_fd_sc_hd__decap_12
X_130_ _167_/Q _153_/A VGND VGND VPWR VPWR _144_/A sky130_fd_sc_hd__or2_1
XFILLER_15_229 VGND VGND VPWR VPWR sky130_fd_sc_hd__decap_12
XFILLER_23_54 VGND VGND VPWR VPWR sky130_fd_sc_hd__decap_3
XFILLER_2_199 VGND VGND VPWR VPWR sky130_fd_sc_hd__fill_1
XFILLER_2_144 VGND VGND VPWR VPWR sky130_fd_sc_hd__decap_4
XFILLER_43_3 VGND VGND VPWR VPWR sky130_fd_sc_hd__decap_12
XFILLER_20_298 VGND VGND VPWR VPWR sky130_fd_sc_hd__fill_1
XFILLER_18_54 VGND VGND VPWR VPWR sky130_fd_sc_hd__decap_12
XFILLER_18_87 VGND VGND VPWR VPWR sky130_fd_sc_hd__decap_12
XFILLER_50_30 VGND VGND VPWR VPWR sky130_fd_sc_hd__decap_12
XFILLER_11_265 VGND VGND VPWR VPWR sky130_fd_sc_hd__decap_12
XFILLER_11_298 VGND VGND VPWR VPWR sky130_fd_sc_hd__fill_1
X_113_ _171_/Q _151_/A VGND VGND VPWR VPWR _114_/A sky130_fd_sc_hd__or2_1
XFILLER_34_42 VGND VGND VPWR VPWR sky130_fd_sc_hd__decap_12
XFILLER_37_151 VGND VGND VPWR VPWR sky130_fd_sc_hd__decap_12
XFILLER_37_184 VGND VGND VPWR VPWR sky130_fd_sc_hd__decap_12
XFILLER_20_66 VGND VGND VPWR VPWR sky130_fd_sc_hd__decap_12
XFILLER_20_99 VGND VGND VPWR VPWR sky130_fd_sc_hd__decap_12
XPHY_352 VGND VPWR sky130_fd_sc_hd__tapvpwrvgnd_1
XPHY_341 VGND VPWR sky130_fd_sc_hd__tapvpwrvgnd_1
XPHY_330 VGND VPWR sky130_fd_sc_hd__tapvpwrvgnd_1
XPHY_363 VGND VPWR sky130_fd_sc_hd__tapvpwrvgnd_1
XFILLER_19_184 VGND VGND VPWR VPWR sky130_fd_sc_hd__decap_12
XFILLER_40_135 VGND VGND VPWR VPWR sky130_fd_sc_hd__decap_8
XFILLER_40_168 VGND VGND VPWR VPWR sky130_fd_sc_hd__decap_12
XFILLER_48_213 VGND VGND VPWR VPWR sky130_fd_sc_hd__decap_12
XFILLER_0_286 VGND VGND VPWR VPWR sky130_fd_sc_hd__decap_4
XPHY_160 VGND VPWR sky130_fd_sc_hd__tapvpwrvgnd_1
XPHY_171 VGND VPWR sky130_fd_sc_hd__tapvpwrvgnd_1
XPHY_182 VGND VPWR sky130_fd_sc_hd__tapvpwrvgnd_1
XFILLER_16_198 VGND VGND VPWR VPWR sky130_fd_sc_hd__fill_2
XPHY_193 VGND VPWR sky130_fd_sc_hd__tapvpwrvgnd_1
XFILLER_22_168 VGND VGND VPWR VPWR sky130_fd_sc_hd__decap_12
XFILLER_42_42 VGND VGND VPWR VPWR sky130_fd_sc_hd__decap_12
XFILLER_13_124 VGND VGND VPWR VPWR sky130_fd_sc_hd__decap_4
XFILLER_26_54 VGND VGND VPWR VPWR sky130_fd_sc_hd__decap_12
XFILLER_26_87 VGND VGND VPWR VPWR sky130_fd_sc_hd__decap_12
XFILLER_3_58 VGND VGND VPWR VPWR sky130_fd_sc_hd__decap_12
XFILLER_44_282 VGND VGND VPWR VPWR sky130_fd_sc_hd__decap_12
XFILLER_36_249 VGND VGND VPWR VPWR sky130_fd_sc_hd__decap_8
XFILLER_50_274 VGND VGND VPWR VPWR sky130_fd_sc_hd__decap_8
XFILLER_12_78 VGND VGND VPWR VPWR sky130_fd_sc_hd__decap_8
XFILLER_18_249 VGND VGND VPWR VPWR sky130_fd_sc_hd__decap_8
XFILLER_26_282 VGND VGND VPWR VPWR sky130_fd_sc_hd__decap_12
XFILLER_33_208 VGND VGND VPWR VPWR sky130_fd_sc_hd__decap_12
XFILLER_41_241 VGND VGND VPWR VPWR sky130_fd_sc_hd__decap_12
XFILLER_15_208 VGND VGND VPWR VPWR sky130_fd_sc_hd__decap_12
XFILLER_23_241 VGND VGND VPWR VPWR sky130_fd_sc_hd__decap_12
XFILLER_3_3 VGND VGND VPWR VPWR sky130_fd_sc_hd__decap_12
XFILLER_48_30 VGND VGND VPWR VPWR sky130_fd_sc_hd__decap_12
XFILLER_0_26 VGND VGND VPWR VPWR sky130_fd_sc_hd__decap_3
XFILLER_0_59 VGND VGND VPWR VPWR sky130_fd_sc_hd__decap_12
XFILLER_36_3 VGND VGND VPWR VPWR sky130_fd_sc_hd__decap_12
XFILLER_18_66 VGND VGND VPWR VPWR sky130_fd_sc_hd__decap_12
XFILLER_18_99 VGND VGND VPWR VPWR sky130_fd_sc_hd__fill_1
XFILLER_34_54 VGND VGND VPWR VPWR sky130_fd_sc_hd__decap_12
XFILLER_50_42 VGND VGND VPWR VPWR sky130_fd_sc_hd__decap_12
XFILLER_11_277 VGND VGND VPWR VPWR sky130_fd_sc_hd__decap_8
X_112_ _115_/A _112_/B VGND VGND VPWR VPWR _151_/A sky130_fd_sc_hd__or2_1
XFILLER_34_87 VGND VGND VPWR VPWR sky130_fd_sc_hd__decap_12
XFILLER_6_270 VGND VGND VPWR VPWR sky130_fd_sc_hd__decap_12
XFILLER_37_163 VGND VGND VPWR VPWR sky130_fd_sc_hd__decap_8
XFILLER_37_196 VGND VGND VPWR VPWR sky130_fd_sc_hd__decap_12
XFILLER_20_78 VGND VGND VPWR VPWR sky130_fd_sc_hd__decap_8
XPHY_364 VGND VPWR sky130_fd_sc_hd__tapvpwrvgnd_1
XPHY_353 VGND VPWR sky130_fd_sc_hd__tapvpwrvgnd_1
XPHY_342 VGND VPWR sky130_fd_sc_hd__tapvpwrvgnd_1
XPHY_331 VGND VPWR sky130_fd_sc_hd__tapvpwrvgnd_1
XPHY_320 VGND VPWR sky130_fd_sc_hd__tapvpwrvgnd_1
XFILLER_19_196 VGND VGND VPWR VPWR sky130_fd_sc_hd__decap_12
XFILLER_34_111 VGND VGND VPWR VPWR sky130_fd_sc_hd__decap_12
XFILLER_34_144 VGND VGND VPWR VPWR sky130_fd_sc_hd__decap_12
XFILLER_48_225 VGND VGND VPWR VPWR sky130_fd_sc_hd__decap_12
Xoutput9 _182_/Q VGND VGND VPWR VPWR water_toggle sky130_fd_sc_hd__clkbuf_2
XFILLER_48_258 VGND VGND VPWR VPWR sky130_fd_sc_hd__decap_12
XFILLER_16_144 VGND VGND VPWR VPWR sky130_fd_sc_hd__decap_4
XFILLER_16_166 VGND VGND VPWR VPWR sky130_fd_sc_hd__decap_12
XPHY_150 VGND VPWR sky130_fd_sc_hd__tapvpwrvgnd_1
XPHY_161 VGND VPWR sky130_fd_sc_hd__tapvpwrvgnd_1
XPHY_172 VGND VPWR sky130_fd_sc_hd__tapvpwrvgnd_1
XPHY_183 VGND VPWR sky130_fd_sc_hd__tapvpwrvgnd_1
XPHY_194 VGND VPWR sky130_fd_sc_hd__tapvpwrvgnd_1
XFILLER_30_180 VGND VGND VPWR VPWR sky130_fd_sc_hd__decap_12
XFILLER_26_66 VGND VGND VPWR VPWR sky130_fd_sc_hd__decap_12
XFILLER_42_87 VGND VGND VPWR VPWR sky130_fd_sc_hd__decap_12
XFILLER_42_54 VGND VGND VPWR VPWR sky130_fd_sc_hd__decap_12
XFILLER_13_169 VGND VGND VPWR VPWR sky130_fd_sc_hd__fill_2
XFILLER_26_99 VGND VGND VPWR VPWR sky130_fd_sc_hd__decap_12
XFILLER_3_15 VGND VGND VPWR VPWR sky130_fd_sc_hd__decap_12
XFILLER_44_294 VGND VGND VPWR VPWR sky130_fd_sc_hd__decap_4
XFILLER_8_151 VGND VGND VPWR VPWR sky130_fd_sc_hd__decap_12
XFILLER_50_286 VGND VGND VPWR VPWR sky130_fd_sc_hd__decap_4
XFILLER_10_117 VGND VGND VPWR VPWR sky130_fd_sc_hd__fill_1
XFILLER_10_128 VGND VGND VPWR VPWR sky130_fd_sc_hd__decap_4
XFILLER_41_220 VGND VGND VPWR VPWR sky130_fd_sc_hd__decap_8
XFILLER_26_294 VGND VGND VPWR VPWR sky130_fd_sc_hd__decap_4
XFILLER_41_286 VGND VGND VPWR VPWR sky130_fd_sc_hd__decap_12
XFILLER_41_253 VGND VGND VPWR VPWR sky130_fd_sc_hd__decap_12
XFILLER_5_110 VGND VGND VPWR VPWR sky130_fd_sc_hd__decap_4
XFILLER_5_132 VGND VGND VPWR VPWR sky130_fd_sc_hd__fill_1
XFILLER_23_220 VGND VGND VPWR VPWR sky130_fd_sc_hd__decap_8
XFILLER_23_253 VGND VGND VPWR VPWR sky130_fd_sc_hd__decap_12
XFILLER_23_286 VGND VGND VPWR VPWR sky130_fd_sc_hd__decap_12
XFILLER_48_42 VGND VGND VPWR VPWR sky130_fd_sc_hd__decap_12
XFILLER_9_58 VGND VGND VPWR VPWR sky130_fd_sc_hd__decap_12
XFILLER_50_6 VGND VGND VPWR VPWR sky130_fd_sc_hd__decap_12
XFILLER_29_3 VGND VGND VPWR VPWR sky130_fd_sc_hd__decap_12
XFILLER_49_172 VGND VGND VPWR VPWR sky130_fd_sc_hd__decap_12
XFILLER_20_201 VGND VGND VPWR VPWR sky130_fd_sc_hd__decap_12
XFILLER_18_78 VGND VGND VPWR VPWR sky130_fd_sc_hd__decap_8
XFILLER_34_66 VGND VGND VPWR VPWR sky130_fd_sc_hd__decap_12
XFILLER_50_54 VGND VGND VPWR VPWR sky130_fd_sc_hd__decap_4
X_111_ _172_/Q _152_/B _116_/B VGND VGND VPWR VPWR _111_/X sky130_fd_sc_hd__and3_1
XFILLER_34_99 VGND VGND VPWR VPWR sky130_fd_sc_hd__decap_12
XFILLER_6_282 VGND VGND VPWR VPWR sky130_fd_sc_hd__decap_12
XFILLER_1_70 VGND VGND VPWR VPWR sky130_fd_sc_hd__decap_12
XPHY_365 VGND VPWR sky130_fd_sc_hd__tapvpwrvgnd_1
XPHY_354 VGND VPWR sky130_fd_sc_hd__tapvpwrvgnd_1
XPHY_343 VGND VPWR sky130_fd_sc_hd__tapvpwrvgnd_1
XPHY_332 VGND VPWR sky130_fd_sc_hd__tapvpwrvgnd_1
XPHY_321 VGND VPWR sky130_fd_sc_hd__tapvpwrvgnd_1
XPHY_310 VGND VPWR sky130_fd_sc_hd__tapvpwrvgnd_1
XFILLER_6_15 VGND VGND VPWR VPWR sky130_fd_sc_hd__decap_12
XFILLER_3_241 VGND VGND VPWR VPWR sky130_fd_sc_hd__decap_12
XFILLER_34_123 VGND VGND VPWR VPWR sky130_fd_sc_hd__decap_12
XFILLER_34_156 VGND VGND VPWR VPWR sky130_fd_sc_hd__decap_12
XFILLER_48_237 VGND VGND VPWR VPWR sky130_fd_sc_hd__decap_12
XFILLER_0_233 VGND VGND VPWR VPWR sky130_fd_sc_hd__decap_12
XFILLER_16_178 VGND VGND VPWR VPWR sky130_fd_sc_hd__decap_12
XFILLER_31_115 VGND VGND VPWR VPWR sky130_fd_sc_hd__decap_12
XPHY_151 VGND VPWR sky130_fd_sc_hd__tapvpwrvgnd_1
XPHY_140 VGND VPWR sky130_fd_sc_hd__tapvpwrvgnd_1
XPHY_162 VGND VPWR sky130_fd_sc_hd__tapvpwrvgnd_1
XPHY_173 VGND VPWR sky130_fd_sc_hd__tapvpwrvgnd_1
XPHY_184 VGND VPWR sky130_fd_sc_hd__tapvpwrvgnd_1
XPHY_195 VGND VPWR sky130_fd_sc_hd__tapvpwrvgnd_1
XFILLER_11_3 VGND VGND VPWR VPWR sky130_fd_sc_hd__decap_12
XFILLER_22_137 VGND VGND VPWR VPWR sky130_fd_sc_hd__decap_6
XFILLER_30_192 VGND VGND VPWR VPWR sky130_fd_sc_hd__decap_8
XFILLER_45_229 VGND VGND VPWR VPWR sky130_fd_sc_hd__decap_12
XFILLER_13_115 VGND VGND VPWR VPWR sky130_fd_sc_hd__decap_4
XFILLER_26_78 VGND VGND VPWR VPWR sky130_fd_sc_hd__decap_8
XFILLER_38_270 VGND VGND VPWR VPWR sky130_fd_sc_hd__decap_12
XFILLER_42_99 VGND VGND VPWR VPWR sky130_fd_sc_hd__decap_12
XFILLER_42_66 VGND VGND VPWR VPWR sky130_fd_sc_hd__decap_12
XFILLER_13_137 VGND VGND VPWR VPWR sky130_fd_sc_hd__fill_1
XFILLER_3_27 VGND VGND VPWR VPWR sky130_fd_sc_hd__decap_12
XFILLER_8_163 VGND VGND VPWR VPWR sky130_fd_sc_hd__decap_12
XFILLER_8_141 VGND VGND VPWR VPWR sky130_fd_sc_hd__fill_2
XFILLER_27_229 VGND VGND VPWR VPWR sky130_fd_sc_hd__decap_12
XFILLER_41_265 VGND VGND VPWR VPWR sky130_fd_sc_hd__decap_12
XFILLER_41_298 VGND VGND VPWR VPWR sky130_fd_sc_hd__fill_1
XFILLER_32_298 VGND VGND VPWR VPWR sky130_fd_sc_hd__fill_1
XFILLER_23_265 VGND VGND VPWR VPWR sky130_fd_sc_hd__decap_12
XFILLER_23_298 VGND VGND VPWR VPWR sky130_fd_sc_hd__fill_1
XFILLER_48_87 VGND VGND VPWR VPWR sky130_fd_sc_hd__decap_12
XFILLER_48_54 VGND VGND VPWR VPWR sky130_fd_sc_hd__decap_12
XFILLER_9_15 VGND VGND VPWR VPWR sky130_fd_sc_hd__decap_12
XFILLER_14_298 VGND VGND VPWR VPWR sky130_fd_sc_hd__fill_1
XFILLER_49_184 VGND VGND VPWR VPWR sky130_fd_sc_hd__decap_12
XFILLER_49_151 VGND VGND VPWR VPWR sky130_fd_sc_hd__decap_12
XFILLER_20_213 VGND VGND VPWR VPWR sky130_fd_sc_hd__decap_12
X_110_ _180_/Q _107_/Y _180_/Q _107_/Y VGND VGND VPWR VPWR _116_/B sky130_fd_sc_hd__o2bb2a_1
XFILLER_34_78 VGND VGND VPWR VPWR sky130_fd_sc_hd__decap_8
XFILLER_50_88 VGND VGND VPWR VPWR sky130_fd_sc_hd__decap_4
XFILLER_41_3 VGND VGND VPWR VPWR sky130_fd_sc_hd__decap_12
XFILLER_6_294 VGND VGND VPWR VPWR sky130_fd_sc_hd__decap_4
XFILLER_1_82 VGND VGND VPWR VPWR sky130_fd_sc_hd__decap_12
XPHY_300 VGND VPWR sky130_fd_sc_hd__tapvpwrvgnd_1
XPHY_366 VGND VPWR sky130_fd_sc_hd__tapvpwrvgnd_1
XPHY_355 VGND VPWR sky130_fd_sc_hd__tapvpwrvgnd_1
XPHY_344 VGND VPWR sky130_fd_sc_hd__tapvpwrvgnd_1
XPHY_333 VGND VPWR sky130_fd_sc_hd__tapvpwrvgnd_1
XPHY_322 VGND VPWR sky130_fd_sc_hd__tapvpwrvgnd_1
XPHY_311 VGND VPWR sky130_fd_sc_hd__tapvpwrvgnd_1
XFILLER_6_27 VGND VGND VPWR VPWR sky130_fd_sc_hd__fill_2
XFILLER_3_286 VGND VGND VPWR VPWR sky130_fd_sc_hd__decap_12
XFILLER_3_253 VGND VGND VPWR VPWR sky130_fd_sc_hd__decap_12
XFILLER_3_220 VGND VGND VPWR VPWR sky130_fd_sc_hd__decap_8
XFILLER_19_110 VGND VGND VPWR VPWR sky130_fd_sc_hd__decap_4
XFILLER_34_135 VGND VGND VPWR VPWR sky130_fd_sc_hd__decap_8
XFILLER_34_168 VGND VGND VPWR VPWR sky130_fd_sc_hd__decap_12
XFILLER_15_58 VGND VGND VPWR VPWR sky130_fd_sc_hd__decap_12
XFILLER_0_212 VGND VGND VPWR VPWR sky130_fd_sc_hd__fill_1
XFILLER_48_249 VGND VGND VPWR VPWR sky130_fd_sc_hd__decap_8
XFILLER_0_245 VGND VGND VPWR VPWR sky130_fd_sc_hd__decap_12
XPHY_152 VGND VPWR sky130_fd_sc_hd__tapvpwrvgnd_1
XPHY_141 VGND VPWR sky130_fd_sc_hd__tapvpwrvgnd_1
XPHY_130 VGND VPWR sky130_fd_sc_hd__tapvpwrvgnd_1
XFILLER_16_157 VGND VGND VPWR VPWR sky130_fd_sc_hd__decap_4
XFILLER_31_127 VGND VGND VPWR VPWR sky130_fd_sc_hd__decap_12
XPHY_163 VGND VPWR sky130_fd_sc_hd__tapvpwrvgnd_1
XPHY_174 VGND VPWR sky130_fd_sc_hd__tapvpwrvgnd_1
XPHY_185 VGND VPWR sky130_fd_sc_hd__tapvpwrvgnd_1
XPHY_196 VGND VPWR sky130_fd_sc_hd__tapvpwrvgnd_1
XFILLER_7_70 VGND VGND VPWR VPWR sky130_fd_sc_hd__decap_12
XFILLER_45_208 VGND VGND VPWR VPWR sky130_fd_sc_hd__decap_12
XFILLER_38_282 VGND VGND VPWR VPWR sky130_fd_sc_hd__decap_12
XFILLER_42_78 VGND VGND VPWR VPWR sky130_fd_sc_hd__decap_8
XFILLER_3_39 VGND VGND VPWR VPWR sky130_fd_sc_hd__decap_12
XFILLER_12_171 VGND VGND VPWR VPWR sky130_fd_sc_hd__decap_12
XFILLER_8_175 VGND VGND VPWR VPWR sky130_fd_sc_hd__decap_12
XFILLER_27_208 VGND VGND VPWR VPWR sky130_fd_sc_hd__decap_12
XFILLER_50_233 VGND VGND VPWR VPWR sky130_fd_sc_hd__decap_12
XFILLER_35_241 VGND VGND VPWR VPWR sky130_fd_sc_hd__decap_12
XFILLER_12_15 VGND VGND VPWR VPWR sky130_fd_sc_hd__decap_12
XFILLER_41_277 VGND VGND VPWR VPWR sky130_fd_sc_hd__decap_8
XFILLER_17_241 VGND VGND VPWR VPWR sky130_fd_sc_hd__decap_12
XFILLER_23_277 VGND VGND VPWR VPWR sky130_fd_sc_hd__decap_8
XFILLER_23_58 VGND VGND VPWR VPWR sky130_fd_sc_hd__decap_12
XFILLER_48_66 VGND VGND VPWR VPWR sky130_fd_sc_hd__decap_12
XFILLER_48_99 VGND VGND VPWR VPWR sky130_fd_sc_hd__decap_12
XFILLER_0_18 VGND VGND VPWR VPWR sky130_fd_sc_hd__decap_8
XFILLER_9_27 VGND VGND VPWR VPWR sky130_fd_sc_hd__decap_12
XFILLER_49_196 VGND VGND VPWR VPWR sky130_fd_sc_hd__decap_12
XFILLER_49_163 VGND VGND VPWR VPWR sky130_fd_sc_hd__decap_8
XFILLER_1_170 VGND VGND VPWR VPWR sky130_fd_sc_hd__fill_1
XFILLER_20_225 VGND VGND VPWR VPWR sky130_fd_sc_hd__decap_12
XFILLER_20_258 VGND VGND VPWR VPWR sky130_fd_sc_hd__decap_12
XFILLER_7_229 VGND VGND VPWR VPWR sky130_fd_sc_hd__decap_12
XFILLER_1_3 VGND VGND VPWR VPWR sky130_fd_sc_hd__decap_12
XFILLER_46_111 VGND VGND VPWR VPWR sky130_fd_sc_hd__decap_12
XFILLER_46_144 VGND VGND VPWR VPWR sky130_fd_sc_hd__decap_12
X_169_ _182_/CLK _169_/D VGND VGND VPWR VPWR _169_/Q sky130_fd_sc_hd__dfxtp_1
XFILLER_34_3 VGND VGND VPWR VPWR sky130_fd_sc_hd__decap_12
XFILLER_1_94 VGND VGND VPWR VPWR sky130_fd_sc_hd__decap_8
XFILLER_20_15 VGND VGND VPWR VPWR sky130_fd_sc_hd__decap_12
XFILLER_28_111 VGND VGND VPWR VPWR sky130_fd_sc_hd__decap_12
XPHY_334 VGND VPWR sky130_fd_sc_hd__tapvpwrvgnd_1
XPHY_323 VGND VPWR sky130_fd_sc_hd__tapvpwrvgnd_1
XPHY_312 VGND VPWR sky130_fd_sc_hd__tapvpwrvgnd_1
XFILLER_28_144 VGND VGND VPWR VPWR sky130_fd_sc_hd__decap_12
XPHY_301 VGND VPWR sky130_fd_sc_hd__tapvpwrvgnd_1
XPHY_356 VGND VPWR sky130_fd_sc_hd__tapvpwrvgnd_1
XPHY_345 VGND VPWR sky130_fd_sc_hd__tapvpwrvgnd_1
XFILLER_3_298 VGND VGND VPWR VPWR sky130_fd_sc_hd__fill_1
XFILLER_3_265 VGND VGND VPWR VPWR sky130_fd_sc_hd__decap_12
XFILLER_19_144 VGND VGND VPWR VPWR sky130_fd_sc_hd__decap_12
XFILLER_42_180 VGND VGND VPWR VPWR sky130_fd_sc_hd__decap_12
XFILLER_15_15 VGND VGND VPWR VPWR sky130_fd_sc_hd__decap_12
XFILLER_31_58 VGND VGND VPWR VPWR sky130_fd_sc_hd__decap_12
XFILLER_0_257 VGND VGND VPWR VPWR sky130_fd_sc_hd__decap_4
XPHY_142 VGND VPWR sky130_fd_sc_hd__tapvpwrvgnd_1
XPHY_131 VGND VPWR sky130_fd_sc_hd__tapvpwrvgnd_1
XPHY_120 VGND VPWR sky130_fd_sc_hd__tapvpwrvgnd_1
XPHY_153 VGND VPWR sky130_fd_sc_hd__tapvpwrvgnd_1
XPHY_164 VGND VPWR sky130_fd_sc_hd__tapvpwrvgnd_1
XPHY_175 VGND VPWR sky130_fd_sc_hd__tapvpwrvgnd_1
XFILLER_24_180 VGND VGND VPWR VPWR sky130_fd_sc_hd__decap_12
XFILLER_31_106 VGND VGND VPWR VPWR sky130_fd_sc_hd__decap_8
XFILLER_31_139 VGND VGND VPWR VPWR sky130_fd_sc_hd__decap_12
XPHY_186 VGND VPWR sky130_fd_sc_hd__tapvpwrvgnd_1
XPHY_197 VGND VPWR sky130_fd_sc_hd__tapvpwrvgnd_1
XPHY_0 VGND VGND VPWR VPWR sky130_fd_sc_hd__decap_3
XFILLER_7_82 VGND VGND VPWR VPWR sky130_fd_sc_hd__decap_12
XFILLER_38_294 VGND VGND VPWR VPWR sky130_fd_sc_hd__decap_4
XFILLER_21_172 VGND VGND VPWR VPWR sky130_fd_sc_hd__decap_12
XFILLER_8_121 VGND VGND VPWR VPWR sky130_fd_sc_hd__decap_4
XFILLER_12_183 VGND VGND VPWR VPWR sky130_fd_sc_hd__decap_12
XFILLER_8_187 VGND VGND VPWR VPWR sky130_fd_sc_hd__decap_12
XFILLER_50_245 VGND VGND VPWR VPWR sky130_fd_sc_hd__decap_12
XFILLER_35_220 VGND VGND VPWR VPWR sky130_fd_sc_hd__decap_8
XFILLER_35_253 VGND VGND VPWR VPWR sky130_fd_sc_hd__decap_12
XFILLER_35_286 VGND VGND VPWR VPWR sky130_fd_sc_hd__decap_12
XFILLER_10_109 VGND VGND VPWR VPWR sky130_fd_sc_hd__decap_8
XFILLER_12_27 VGND VGND VPWR VPWR sky130_fd_sc_hd__fill_2
XFILLER_5_124 VGND VGND VPWR VPWR sky130_fd_sc_hd__decap_8
XFILLER_17_220 VGND VGND VPWR VPWR sky130_fd_sc_hd__decap_8
XFILLER_17_253 VGND VGND VPWR VPWR sky130_fd_sc_hd__decap_12
XFILLER_17_286 VGND VGND VPWR VPWR sky130_fd_sc_hd__decap_12
XFILLER_32_201 VGND VGND VPWR VPWR sky130_fd_sc_hd__decap_12
XFILLER_48_78 VGND VGND VPWR VPWR sky130_fd_sc_hd__decap_8
XFILLER_14_201 VGND VGND VPWR VPWR sky130_fd_sc_hd__decap_12
XFILLER_9_39 VGND VGND VPWR VPWR sky130_fd_sc_hd__decap_12
XFILLER_13_70 VGND VGND VPWR VPWR sky130_fd_sc_hd__decap_12
XFILLER_20_237 VGND VGND VPWR VPWR sky130_fd_sc_hd__decap_12
XFILLER_18_15 VGND VGND VPWR VPWR sky130_fd_sc_hd__decap_12
XFILLER_7_208 VGND VGND VPWR VPWR sky130_fd_sc_hd__decap_12
XFILLER_46_156 VGND VGND VPWR VPWR sky130_fd_sc_hd__decap_12
XFILLER_46_123 VGND VGND VPWR VPWR sky130_fd_sc_hd__decap_12
X_168_ _177_/CLK _168_/D VGND VGND VPWR VPWR _168_/Q sky130_fd_sc_hd__dfxtp_1
XFILLER_10_270 VGND VGND VPWR VPWR sky130_fd_sc_hd__decap_12
X_099_ _115_/A VGND VGND VPWR VPWR _134_/B sky130_fd_sc_hd__inv_2
XFILLER_27_3 VGND VGND VPWR VPWR sky130_fd_sc_hd__decap_12
XFILLER_1_51 VGND VGND VPWR VPWR sky130_fd_sc_hd__decap_6
XFILLER_20_27 VGND VGND VPWR VPWR sky130_fd_sc_hd__fill_2
XFILLER_28_123 VGND VGND VPWR VPWR sky130_fd_sc_hd__decap_12
XFILLER_28_156 VGND VGND VPWR VPWR sky130_fd_sc_hd__decap_12
XFILLER_29_58 VGND VGND VPWR VPWR sky130_fd_sc_hd__decap_12
XPHY_357 VGND VPWR sky130_fd_sc_hd__tapvpwrvgnd_1
XPHY_346 VGND VPWR sky130_fd_sc_hd__tapvpwrvgnd_1
XPHY_335 VGND VPWR sky130_fd_sc_hd__tapvpwrvgnd_1
XPHY_324 VGND VPWR sky130_fd_sc_hd__tapvpwrvgnd_1
XFILLER_43_115 VGND VGND VPWR VPWR sky130_fd_sc_hd__decap_12
XPHY_313 VGND VPWR sky130_fd_sc_hd__tapvpwrvgnd_1
XPHY_302 VGND VPWR sky130_fd_sc_hd__tapvpwrvgnd_1
XFILLER_3_277 VGND VGND VPWR VPWR sky130_fd_sc_hd__decap_8
XFILLER_19_156 VGND VGND VPWR VPWR sky130_fd_sc_hd__decap_12
XFILLER_42_192 VGND VGND VPWR VPWR sky130_fd_sc_hd__decap_8
XFILLER_15_27 VGND VGND VPWR VPWR sky130_fd_sc_hd__decap_12
XFILLER_25_115 VGND VGND VPWR VPWR sky130_fd_sc_hd__decap_12
XFILLER_31_15 VGND VGND VPWR VPWR sky130_fd_sc_hd__decap_12
XPHY_143 VGND VPWR sky130_fd_sc_hd__tapvpwrvgnd_1
XPHY_132 VGND VPWR sky130_fd_sc_hd__tapvpwrvgnd_1
XPHY_121 VGND VPWR sky130_fd_sc_hd__tapvpwrvgnd_1
XPHY_110 VGND VPWR sky130_fd_sc_hd__tapvpwrvgnd_1
XPHY_154 VGND VPWR sky130_fd_sc_hd__tapvpwrvgnd_1
XPHY_165 VGND VPWR sky130_fd_sc_hd__tapvpwrvgnd_1
XPHY_176 VGND VPWR sky130_fd_sc_hd__tapvpwrvgnd_1
XPHY_187 VGND VPWR sky130_fd_sc_hd__tapvpwrvgnd_1
XPHY_198 VGND VPWR sky130_fd_sc_hd__tapvpwrvgnd_1
XFILLER_24_192 VGND VGND VPWR VPWR sky130_fd_sc_hd__decap_8
XFILLER_21_70 VGND VGND VPWR VPWR sky130_fd_sc_hd__decap_12
XFILLER_39_229 VGND VGND VPWR VPWR sky130_fd_sc_hd__decap_12
XPHY_1 VGND VGND VPWR VPWR sky130_fd_sc_hd__decap_3
XFILLER_15_170 VGND VGND VPWR VPWR sky130_fd_sc_hd__fill_1
XFILLER_22_118 VGND VGND VPWR VPWR sky130_fd_sc_hd__decap_4
XFILLER_7_94 VGND VGND VPWR VPWR sky130_fd_sc_hd__decap_4
XFILLER_26_15 VGND VGND VPWR VPWR sky130_fd_sc_hd__decap_12
XFILLER_21_184 VGND VGND VPWR VPWR sky130_fd_sc_hd__decap_12
XFILLER_44_298 VGND VGND VPWR VPWR sky130_fd_sc_hd__fill_1
XFILLER_8_144 VGND VGND VPWR VPWR sky130_fd_sc_hd__decap_4
XFILLER_8_133 VGND VGND VPWR VPWR sky130_fd_sc_hd__decap_8
XFILLER_12_195 VGND VGND VPWR VPWR sky130_fd_sc_hd__decap_4
XFILLER_8_199 VGND VGND VPWR VPWR sky130_fd_sc_hd__fill_1
XFILLER_50_257 VGND VGND VPWR VPWR sky130_fd_sc_hd__decap_4
XFILLER_35_265 VGND VGND VPWR VPWR sky130_fd_sc_hd__decap_12
XFILLER_35_298 VGND VGND VPWR VPWR sky130_fd_sc_hd__fill_1
XFILLER_26_298 VGND VGND VPWR VPWR sky130_fd_sc_hd__fill_1
XFILLER_37_58 VGND VGND VPWR VPWR sky130_fd_sc_hd__decap_12
XFILLER_17_265 VGND VGND VPWR VPWR sky130_fd_sc_hd__decap_12
XFILLER_17_298 VGND VGND VPWR VPWR sky130_fd_sc_hd__fill_1
XFILLER_32_213 VGND VGND VPWR VPWR sky130_fd_sc_hd__decap_12
XFILLER_2_139 VGND VGND VPWR VPWR sky130_fd_sc_hd__decap_4
XFILLER_14_213 VGND VGND VPWR VPWR sky130_fd_sc_hd__decap_12
XFILLER_13_82 VGND VGND VPWR VPWR sky130_fd_sc_hd__decap_12
XFILLER_1_172 VGND VGND VPWR VPWR sky130_fd_sc_hd__decap_12
XFILLER_20_249 VGND VGND VPWR VPWR sky130_fd_sc_hd__decap_8
XFILLER_18_27 VGND VGND VPWR VPWR sky130_fd_sc_hd__fill_2
XFILLER_34_15 VGND VGND VPWR VPWR sky130_fd_sc_hd__decap_12
XFILLER_46_168 VGND VGND VPWR VPWR sky130_fd_sc_hd__decap_12
XFILLER_46_135 VGND VGND VPWR VPWR sky130_fd_sc_hd__decap_8
X_167_ _177_/CLK _167_/D VGND VGND VPWR VPWR _167_/Q sky130_fd_sc_hd__dfxtp_1
XFILLER_10_282 VGND VGND VPWR VPWR sky130_fd_sc_hd__decap_12
X_098_ _169_/Q VGND VGND VPWR VPWR _122_/A sky130_fd_sc_hd__inv_2
XFILLER_29_15 VGND VGND VPWR VPWR sky130_fd_sc_hd__decap_12
XFILLER_28_135 VGND VGND VPWR VPWR sky130_fd_sc_hd__decap_8
XFILLER_28_168 VGND VGND VPWR VPWR sky130_fd_sc_hd__decap_12
XPHY_358 VGND VPWR sky130_fd_sc_hd__tapvpwrvgnd_1
XPHY_347 VGND VPWR sky130_fd_sc_hd__tapvpwrvgnd_1
XPHY_336 VGND VPWR sky130_fd_sc_hd__tapvpwrvgnd_1
XFILLER_45_58 VGND VGND VPWR VPWR sky130_fd_sc_hd__decap_12
XPHY_325 VGND VPWR sky130_fd_sc_hd__tapvpwrvgnd_1
XFILLER_43_127 VGND VGND VPWR VPWR sky130_fd_sc_hd__decap_12
XPHY_314 VGND VPWR sky130_fd_sc_hd__tapvpwrvgnd_1