*SPEF "IEEE 1481-1998"
*DESIGN "fsm"
*DATE "Thu Apr 29 15:19:07 2021"
*VENDOR "AUC CSCE Department"
*PROGRAM "SPEF Extractor"
*VERSION "1.0"
*DESIGN_FLOW "PIN_CAP NONE"
*DIVIDER /
*DELIMITER :
*BUS_DELIMITER []
*T_UNIT 1.00000 NS
*C_UNIT 1.00000 PF
*R_UNIT 1.00000 OHM
*L_UNIT 1.00000 HENRY


*NAME_MAP
*0 clk
*1 l_sense
*2 l_thresh[0]
*3 l_thresh[1]
*4 m_sense
*5 m_thresh_1
*6 m_thresh_2
*7 water_time_long
*8 water_time_short
*9 water_toggle
*10 _00_
*11 _01_
*12 _02_
*13 _03_
*14 _04_
*15 _05_
*16 _06_
*17 _07_
*18 _08_
*19 _09_
*20 _10_
*21 state\[0\]
*22 state\[1\]
*23 net1
*24 net2
*25 net3
*26 net4
*27 net5
*28 net6
*29 net7
*30 net8
*31 net9

*D_NET *0 0.0027419617519400005
*CONN
*P clk I
*I _24_:CLK I
*I _23_:CLK I
*I _22_:CLK I
*CAP
0 _23_:CLK 5.034052896000001e-05
1 *0:2 0.0010301515989800001
2 *0:4 8.223124824000001e-05
3 *0:5 0.0006991194304800001
4 *0:6 5.034052896000001e-05
5 *0:7 0.00016946796088000002
6 *0:9 0.00012830406688
7 *0:11 0.0002753982548
8 *0:13 5.034052896000001e-05
9 _22_:CLK 0.0002062676048
10 *0:1 0
11 *0:10 0
12 _24_:CLK 0
*RES
0 _23_:CLK *0:1 0.4107142857142857
1 *0:2 *0:3 11.687499999999998
2 *0:4 *0:2 0.8214285714285714
3 *0:5 *0:4 7.892857142857142
4 *0:6 _22_:CLK 0.4107142857142857
5 *0:7 *0:8 1.8214285714285714
6 *0:9 *0:10 1.232142857142857
7 *0:11 *0:12 3.035714285714285
8 *0:13 _23_:CLK 0.4107142857142857
9 _22_:CLK _24_:CLK 2.0535714285714284
10 _23_:CLK _23_:CLK 0
11 *0:1 *0:3 0
12 _22_:CLK _22_:CLK 0
13 *0:6 *0:8 0
14 *0:10 *0:7 0
15 *0:9 *0:12 0
16 *0:13 *0:11 0
17 _24_:CLK _24_:CLK 0
*END

*D_NET *1 0.00098409266446
*CONN
*P l_sense I
*I input1:A I
*CAP
13 *1:1 0.00024524937376
14 *1:2 0.0007388432907000001
15 input1:A 0
*RES
18 *1:1 input1:A 2.464285714285714
19 *1:2 *1:3 8.348214285714285
20 input1:A input1:A 0
21 *1:1 *1:2 0
*END

*D_NET *2 0.0007388432907000001
*CONN
*P l_thresh[0] I
*I input2:A I
*CAP
16 *2:1 0.0007388432907000001
17 input2:A 0
*RES
22 *2:1 *2:2 8.348214285714285
23 input2:A input2:A 0
24 input2:A *2:1 0
*END

*D_NET *3 0.00108705459334
*CONN
*P l_thresh[1] I
*I input3:A I
*CAP
18 *3:1 0.0006858781437400002
19 *3:3 0.00040117644959999997
20 input3:A 0
*RES
25 *3:1 *3:2 7.741071428571428
26 *3:3 input3:A 4.107142857142857
27 *3:3 *3:2 0
28 input3:A input3:A 0
*END

*D_NET *4 0.0013643795236200002
*CONN
*P m_sense I
*I input4:A I
*CAP
21 input4:A 0.00044015821855999997
22 *4:2 0.0009242213050600002
23 *4:1 0
*RES
29 input4:A *4:1 4.517857142857142
30 *4:2 *4:3 10.473214285714285
31 input4:A input4:A 0
32 *4:1 *4:2 0
*END

*D_NET *5 0.00040993717191999997
*CONN
*P m_thresh_1 I
*I input5:A I
*CAP
24 *5:1 0.0003596407917
25 *5:3 5.029638022e-05
26 *5:4 0
27 input5:A 0
*RES
33 *5:1 *5:2 0.6125666666666667
34 *5:3 *5:4 0.45535714285714285
35 *5:4 *5:2 0
36 input5:A input5:A 0
37 input5:A *5:3 0
*END

*D_NET *6 0.00046290231888
*CONN
*P m_thresh_2 I
*I input6:A I
*CAP
28 *6:1 0.0003596407917
29 *6:3 0.00010326152718000001
30 *6:4 0
31 input6:A 0
*RES
38 *6:1 *6:2 0.6125666666666667
39 *6:3 *6:4 1.0624999999999998
40 *6:4 *6:2 0
41 input6:A input6:A 0
42 input6:A *6:3 0
*END

*D_NET *7 0.0012558960214600003
*CONN
*P water_time_long I
*I input7:A I
*CAP
32 *7:1 0.00043429369568000003
33 *7:2 4.640188412000001e-05
34 *7:3 0.0006858781437400002
35 input7:A 8.932229792e-05
36 *7:5 0
*RES
43 *7:1 *7:2 4.857142857142857
44 *7:2 *7:3 0.4107142857142857
45 *7:3 *7:4 7.741071428571428
46 input7:A *7:5 0.8214285714285714
47 *7:5 *7:4 0
48 input7:A input7:A 0
*END

*D_NET *8 0.00095889721428
*CONN
*P water_time_short I
*I input8:A I
*CAP
37 input8:A 0.00012830406688
38 *8:2 7.67789537e-05
39 *8:4 0.0007538141937
40 *8:1 0
*RES
49 input8:A *8:1 1.232142857142857
50 *8:2 *8:3 0.7589285714285713
51 *8:4 *8:5 1.3332333333333333
52 input8:A input8:A 0
53 *8:1 *8:3 0
54 *8:2 *8:4 0
*END

*D_NET *9 0.00073524730616
*CONN
*P water_toggle O
*I output9:X O
*CAP
41 output9:X 0.00024524937376
42 *9:2 0.00020919182110000001
43 *9:4 0.00028080611129999996
44 *9:1 0
*RES
55 output9:X *9:1 2.464285714285714
56 *9:2 *9:3 2.276785714285714
57 *9:4 *9:5 0.4684333333333334
58 output9:X output9:X 0
59 *9:1 *9:3 0
60 *9:2 *9:4 0
*END

*D_NET *10 0.0012803002449600003
*CONN
*I _22_:D I
*I _20_:X O
*CAP
45 _20_:X 8.932229792e-05
46 *10:2 0.0011758057531200002
47 _22_:D 1.5172193919999998e-05
48 *10:1 0
*RES
61 _20_:X *10:1 0.8214285714285714
62 *10:2 *10:3 13.357142857142856
63 _22_:D _22_:D 0.040178571428571425
64 _20_:X _20_:X 0
65 *10:1 *10:2 0
66 _22_:D *10:3 0
67 _22_:D _22_:D 0
*END

*D_NET *11 0.00175167872068
*CONN
*I _23_:D I
*I _19_:X O
*CAP
49 *11:1 0.00032321291168
50 *11:2 0.00088449744484
51 _23_:D 0.00054396836416
52 _19_:X 0
53 *11:4 0
*RES
68 *11:1 _19_:X 3.2857142857142856
69 *11:2 *11:3 10.017857142857142
70 _23_:D *11:4 5.611607142857142
71 _19_:X _19_:X 0
72 *11:1 *11:2 0
73 *11:4 *11:3 0
74 _23_:D _23_:D 0
*END

*D_NET *12 0.00057742620944
*CONN
*I _24_:D I
*I _21_:X O
*CAP
54 *12:1 0.00032836340175999997
55 _24_:D 0.00024906280768
56 _21_:X 0
57 *12:3 0
*RES
75 *12:1 *12:2 3.642857142857143
76 _24_:D *12:3 2.5044642857142856
77 _21_:X _21_:X 0
78 _21_:X *12:1 0
79 *12:3 *12:2 0
80 _24_:D _24_:D 0
*END

*D_NET *13 0.0029924443465600002
*CONN
*I _17_:A I
*I _16_:A1 I
*I _11_:Y O
*CAP
58 *13:1 5.034052896000001e-05
59 *13:2 0.00012830406688
60 *13:3 0.00016946796088000002
61 _16_:A1 0.00067404883232
62 *13:6 0.00197028295752
63 _17_:A 0
64 _11_:Y 0
65 *13:5 0
*RES
81 *13:1 _17_:A 0.4107142857142857
82 *13:2 _11_:Y 1.232142857142857
83 *13:3 *13:4 1.8214285714285714
84 _16_:A1 *13:5 6.982142857142857
85 *13:6 *13:3 22.46428571428571
86 *13:1 *13:6 0
87 _17_:A _17_:A 0
88 _11_:Y _11_:Y 0
89 *13:2 *13:3 0
90 *13:5 *13:4 0
91 _16_:A1 _16_:A1 0
*END

*D_NET *14 0.0019588024118000003
*CONN
*I _16_:B1 I
*I _12_:Y O
*CAP
66 _12_:Y 0.00012830406688
67 *14:2 0.00036338428352000003
68 *14:4 0.0014671140614000001
69 *14:1 0
70 *14:3 0
71 _16_:B1 0
*RES
92 _12_:Y *14:1 1.232142857142857
93 *14:2 *14:3 3.2857142857142856
94 *14:2 _16_:B1 0.30357142857142855
95 *14:4 *14:5 16.69642857142857
96 _12_:Y _12_:Y 0
97 *14:1 *14:4 0
98 *14:3 *14:5 0
99 _16_:B1 _16_:B1 0
*END

*D_NET *15 0.0026397082891600004
*CONN
*I _21_:A2 I
*I _14_:B_N I
*I _13_:X O
*CAP
72 _14_:B_N 0.00040117644959999997
73 *15:2 0.0012022883266000002
74 _13_:X 0.00063506706336
75 *15:5 0.00040117644959999997
76 *15:1 0
77 *15:4 0
78 _21_:A2 0
*RES
100 _14_:B_N *15:1 4.107142857142857
101 *15:2 *15:3 13.660714285714285
102 _13_:X *15:4 6.571428571428571
103 *15:5 _21_:A2 4.107142857142857
104 _14_:B_N _14_:B_N 0
105 *15:1 *15:2 0
106 *15:4 *15:3 0
107 _13_:X _13_:X 0
108 _21_:A2 _21_:A2 0
109 *15:5 *15:6 0
*END

*D_NET *16 0.00196300750268
*CONN
*I _20_:B1 I
*I _15_:A I
*I _14_:X O
*CAP
79 *16:1 5.034052896000001e-05
80 _20_:B1 8.932229792e-05
81 *16:3 5.029638022e-05
82 *16:4 4.640188412000001e-05
83 *16:5 0.00026215696806
84 *16:7 5.034052896000001e-05
85 *16:6 0.0014141489144400001
86 _14_:X 0
87 *16:2 0
88 _15_:A 0
*RES
110 *16:1 _14_:X 0.4107142857142857
111 _20_:B1 *16:2 0.8214285714285714
112 *16:3 *16:4 0.45535714285714285
113 *16:4 *16:5 0.4107142857142857
114 *16:5 *16:6 2.883928571428571
115 *16:7 _15_:A 0.4107142857142857
116 *16:6 *16:8 16.08928571428571
117 _14_:X _14_:X 0
118 *16:1 *16:6 0
119 _20_:B1 _20_:B1 0
120 *16:2 *16:3 0
121 *16:7 *16:8 0
122 _15_:A _15_:A 0
*END

*D_NET *17 0.00109990255452
*CONN
*I _18_:C I
*I _16_:C1 I
*I _15_:Y O
*CAP
89 *17:1 0.00016728583584
90 *17:2 0.00019595053436
91 _16_:C1 5.034052896000001e-05
92 *17:5 4.017137184e-05
93 *17:7 0.00064615428352
94 _18_:C 0
95 _15_:Y 0
96 *17:4 0
*RES
123 *17:1 _15_:Y 1.6428571428571428
124 *17:2 *17:3 2.1249999999999996
125 _16_:C1 *17:4 0.4107142857142857
126 *17:5 *17:6 0.30357142857142855
127 *17:7 *17:8 7.285714285714286
128 _18_:C _18_:C 0
129 _18_:C *17:7 0
130 _15_:Y _15_:Y 0
131 *17:1 *17:2 0
132 *17:4 *17:3 0
133 _16_:C1 _16_:C1 0
134 *17:5 *17:8 0
*END

*D_NET *18 0.0026493604942000003
*CONN
*I _21_:B1 I
*I _19_:B I
*I _16_:X O
*CAP
97 _21_:B1 4.017137184e-05
98 *18:2 0.00016728583584
99 *18:3 0.00012830406688
100 *18:4 0.0008050497244000001
101 _16_:X 0.0005181217564799999
102 *18:5 0.0009904277387600001
103 _19_:B 0
104 *18:6 0
*RES
135 _21_:B1 *18:1 0.30357142857142855
136 *18:2 *18:1 1.6428571428571428
137 *18:3 _19_:B 1.232142857142857
138 *18:4 *18:5 9.107142857142856
139 _16_:X *18:6 5.339285714285714
140 *18:5 *18:7 11.232142857142856
141 _21_:B1 _21_:B1 0
142 *18:2 *18:5 0
143 _19_:B _19_:B 0
144 *18:3 *18:4 0
145 *18:6 *18:7 0
146 _16_:X _16_:X 0
*END

*D_NET *19 0.0019395802462400002
*CONN
*I _20_:A2 I
*I _18_:B I
*I _17_:Y O
*CAP
105 *19:1 0.0009904277387600001
106 *19:3 0.00019595053436
107 _20_:A2 0.00075320197312
108 _18_:B 0
109 _17_:Y 0
110 *19:5 0
*RES
147 *19:1 *19:2 11.232142857142856
148 *19:3 *19:4 2.1249999999999996
149 _20_:A2 *19:5 7.3928571428571415
150 _20_:A2 _20_:A2 0.30357142857142855
151 _20_:A2 _20_:A2 0
152 _20_:A2 *19:1 0
153 _18_:B _18_:B 0
154 _18_:B *19:2 0
155 _17_:Y _17_:Y 0
156 _17_:Y *19:3 0
157 *19:5 *19:4 0
*END

*D_NET *20 0.00206348093296
*CONN
*I _21_:C1 I
*I _19_:C I
*I _18_:Y O
*CAP
111 _21_:C1 0.00019728805056
112 *20:2 0.00032321291168
113 *20:3 0.00011650281392
114 _18_:Y 0.00044015821855999997
115 _19_:C 0.00012830406688
116 *20:7 0.0008580148713600001
117 *20:5 0
118 *20:6 0
119 *20:9 0
*RES
158 _21_:C1 *20:1 0.6071428571428571
159 *20:2 *20:1 3.2857142857142856
160 *20:3 *20:4 1.2142857142857142
161 _18_:Y *20:5 4.517857142857142
162 _19_:C *20:6 1.232142857142857
163 *20:7 *20:8 9.714285714285714
164 _21_:C1 *20:9 1.232142857142857
165 _21_:C1 _21_:C1 0
166 *20:2 *20:3 0
167 *20:5 *20:4 0
168 _18_:Y _18_:Y 0
169 _19_:C _19_:C 0
170 *20:6 *20:7 0
171 *20:9 *20:8 0
*END

*D_NET *21 0.00196526613128
*CONN
*I _22_:Q O
*I _14_:A I
*I _13_:B I
*CAP
120 _22_:Q 0.00012830406688
121 *21:2 0.0010698754592
122 *21:4 0.0003621946806399999
123 _13_:B 8.932229792e-05
124 *21:5 4.017137184e-05
125 *21:3 0.0002753982548
126 *21:1 0
127 _14_:A 0
128 *21:6 0
*RES
172 _22_:Q *21:1 1.232142857142857
173 *21:2 *21:3 12.14285714285714
174 *21:4 _14_:A 3.6964285714285707
175 _13_:B *21:5 0.8214285714285714
176 *21:5 *21:6 0.30357142857142855
177 *21:3 *21:7 3.035714285714285
178 _22_:Q _22_:Q 0
179 *21:1 *21:3 0
180 *21:4 *21:2 0
181 _14_:A _14_:A 0
182 _13_:B _13_:B 0
183 *21:6 *21:7 0
*END

*D_NET *22 0.004967707785920001
*CONN
*I _23_:Q O
*I _20_:A1 I
*I _19_:A I
*I _18_:A I
*I _13_:A I
*I _12_:A I
*CAP
129 _20_:A1 0.00075201237024
130 *22:1 0.00012949366976
131 *22:3 0.00038132854871999994
132 _18_:A 6.898398368e-05
133 *22:5 0.0005960852944
134 *22:7 0.00075208457744
135 *22:2 8.932229792e-05
136 _23_:Q 0.000985902984
137 _13_:A 4.017137184e-05
138 *22:11 0.0007909941392
139 *22:8 0.00038132854871999994
140 _19_:A 0
141 _12_:A 0
142 *22:14 0
143 *22:6 0
144 *22:9 0
145 *22:10 0
146 *22:12 0
*RES
184 _20_:A1 _19_:A 7.803571428571428
185 *22:1 _12_:A 0.30357142857142855
186 *22:1 *22:2 0.8214285714285714
187 *22:3 *22:4 4.249999999999999
188 _18_:A *22:5 0.6071428571428571
189 *22:5 *22:6 6.160714285714286
190 *22:7 *22:8 8.499999999999998
191 *22:2 *22:9 0.8214285714285714
192 _23_:Q *22:10 10.267857142857142
193 _13_:A *22:11 0.30357142857142855
194 *22:11 *22:12 8.214285714285714
195 *22:8 *22:13 4.249999999999999
196 _20_:A1 _20_:A1 0
197 _19_:A _19_:A 0
198 _12_:A _12_:A 0
199 *22:2 *22:4 0
200 *22:14 *22:3 0
201 _18_:A _18_:A 0
202 *22:6 *22:8 0
203 *22:9 *22:7 0
204 _23_:Q _23_:Q 0
205 *22:10 *22:15 0
206 _13_:A _13_:A 0
207 *22:12 *22:13 0
*END

*D_NET *23 0
*CONN
*I input1:X O
*CAP
*RES
*END

*D_NET *24 0.0006560288609999999
*CONN
*I input2:X O
*I _13_:D_N I
*CAP
147 _13_:D_N 8.932229792e-05
148 *24:2 0.00056670656308
149 *24:1 0
150 input2:X 0
*RES
208 _13_:D_N *24:1 0.8214285714285714
209 *24:2 *24:3 6.374999999999999
210 _13_:D_N _13_:D_N 0
211 *24:1 *24:2 0
212 input2:X input2:X 0
213 input2:X *24:3 0
*END

*D_NET *25 0.0016623666532400003
*CONN
*I input3:X O
*I _13_:C I
*CAP
151 *25:1 0.0015730443553200002
152 *25:3 8.932229792e-05
153 input3:X 0
154 _13_:C 0
*RES
214 *25:1 *25:2 17.91071428571428
215 *25:3 _13_:C 0.8214285714285714
216 input3:X input3:X 0
217 input3:X *25:1 0
218 *25:3 *25:2 0
219 _13_:C _13_:C 0
*END

*D_NET *26 0.00027014901880000004
*CONN
*I input4:X O
*I _11_:A I
*CAP
155 *26:1 5.034052896000001e-05
156 *26:2 0.00016946796088000002
157 *26:4 5.034052896000001e-05
158 _11_:A 0
159 input4:X 0
*RES
220 *26:1 _11_:A 0.4107142857142857
221 *26:2 *26:3 1.8214285714285714
222 *26:4 input4:X 0.4107142857142857
223 _11_:A _11_:A 0
224 *26:1 *26:2 0
225 *26:4 *26:3 0
226 input4:X input4:X 0
*END

*D_NET *27 0.0018434745649600001
*CONN
*I input5:X O
*I _17_:B I
*CAP
160 *27:1 0.00023567439458000006
161 *27:3 0.00038800657262
162 input5:X 0.00121979359776
163 _17_:B 0
164 *27:5 0
*RES
227 *27:1 *27:2 2.580357142857143
228 *27:3 *27:2 0.4107142857142857
229 *27:3 *27:4 3.7946428571428568
230 input5:X *27:5 12.732142857142856
231 _17_:B _17_:B 0
232 _17_:B *27:1 0
233 *27:5 *27:4 0
234 input5:X input5:X 0
*END

*D_NET *28 0.00085619586524
*CONN
*I input6:X O
*I _16_:A2 I
*CAP
165 input6:X 0.0002062676048
166 *28:2 0.00019595053436
167 *28:4 0.00040117644959999997
168 _16_:A2 5.280127648e-05
169 *28:1 0
*RES
235 input6:X *28:1 2.0535714285714284
236 *28:2 *28:3 2.1249999999999996
237 *28:4 *28:5 4.107142857142857
238 _16_:A2 *28:5 0.30357142857142855
239 _16_:A2 _16_:A2 0.01339285714285714
240 input6:X input6:X 0
241 *28:1 *28:2 0
242 *28:4 *28:3 0
243 _16_:A2 _16_:A2 0
*END

*D_NET *29 0
*CONN
*I input7:X O
*CAP
*RES
*END

*D_NET *30 0
*CONN
*I input8:X O
*CAP
*RES
*END

*D_NET *31 0.00086185397284
*CONN
*I output9:A I
*I _21_:A1 I
*I _24_:Q O
*CAP
170 *31:1 0.00012830406688
171 *31:2 0.00038132854871999994
172 *31:4 5.034052896000001e-05
173 *31:3 0.00030188082828000006
174 _24_:Q 0
175 _21_:A1 0
176 output9:A 0
*RES
244 *31:1 _24_:Q 1.232142857142857
245 *31:2 *31:3 4.249999999999999
246 *31:4 output9:A 0.4107142857142857
247 *31:3 *31:5 3.339285714285714
248 _24_:Q _24_:Q 0
249 *31:1 *31:3 0
250 _21_:A1 _21_:A1 0
251 _21_:A1 *31:2 0
252 output9:A output9:A 0
253 *31:4 *31:5 0
*END

