*SPEF "IEEE 1481-1998"
*DESIGN "clk_divider"
*DATE "Mon May 10 03:05:51 2021"
*VENDOR "AUC CSCE Department"
*PROGRAM "SPEF Extractor"
*VERSION "1.0"
*DESIGN_FLOW "PIN_CAP NONE"
*DIVIDER /
*DELIMITER :
*BUS_DELIMITER []
*T_UNIT 1.00000 NS
*C_UNIT 1.00000 PF
*R_UNIT 1.00000 OHM
*L_UNIT 1.00000 HENRY


*NAME_MAP
*0 clk
*1 clock_out
*2 _000_
*3 _001_
*4 _002_
*5 _003_
*6 _004_
*7 _005_
*8 _006_
*9 _007_
*10 _008_
*11 _009_
*12 _010_
*13 _011_
*14 _012_
*15 _013_
*16 _014_
*17 _015_
*18 _016_
*19 _017_
*20 _018_
*21 _019_
*22 _020_
*23 _021_
*24 _022_
*25 _023_
*26 _024_
*27 _025_
*28 _026_
*29 _027_
*30 _028_
*31 _029_
*32 _030_
*33 _031_
*34 _032_
*35 _033_
*36 _034_
*37 _035_
*38 _036_
*39 counter\[0\]
*40 counter\[10\]
*41 counter\[11\]
*42 counter\[12\]
*43 counter\[13\]
*44 counter\[14\]
*45 counter\[15\]
*46 counter\[16\]
*47 counter\[17\]
*48 counter\[18\]
*49 counter\[19\]
*50 counter\[1\]
*51 counter\[20\]
*52 counter\[21\]
*53 counter\[22\]
*54 counter\[23\]
*55 counter\[24\]
*56 counter\[25\]
*57 counter\[26\]
*58 counter\[27\]
*59 counter\[2\]
*60 counter\[3\]
*61 counter\[4\]
*62 counter\[5\]
*63 counter\[6\]
*64 counter\[7\]
*65 counter\[8\]
*66 counter\[9\]
*67 net1
*68 clknet_0_clk
*69 clknet_1_0_0_clk
*70 clknet_1_1_0_clk
*71 clknet_2_0_0_clk
*72 clknet_2_1_0_clk
*73 clknet_2_2_0_clk
*74 clknet_2_3_0_clk

*D_NET *0 0.0048878132671000005
*CONN
*P clk I
*I clkbuf_0_clk:A I
*CAP
0 clkbuf_0_clk:A 0.0017655383632
1 *0:2 0.003122274903900001
2 *0:1 0
*RES
0 clkbuf_0_clk:A *0:1 18.482142857142854
1 *0:2 *0:3 35.669642857142854
2 *0:1 *0:2 0
3 clkbuf_0_clk:A clkbuf_0_clk:A 0
*END

*D_NET *1 0.00119001652222
*CONN
*P clock_out O
*I output1:X O
*CAP
3 *1:1 0.00063291299678
4 *1:3 0.00055710352544
5 output1:X 0
*RES
4 *1:1 *1:2 7.133928571428571
5 *1:3 output1:X 5.75
6 *1:3 *1:2 0
7 output1:X output1:X 0
*END

*D_NET *2 0.00023167171952000003
*CONN
*I _074_:D I
*I _046_:X O
*CAP
6 _074_:D 0.00011516890560000001
7 *2:2 0.00011650281392
8 *2:1 0
9 _046_:X 0
*RES
8 _074_:D *2:1 1.09375
9 *2:2 *2:3 1.2142857142857142
10 _074_:D _074_:D 0
11 *2:1 *2:2 0
12 _046_:X _046_:X 0
13 _046_:X *2:3 0
*END

*D_NET *3 0.001641394214
*CONN
*I _075_:D I
*I _046_:A I
*I _045_:Y O
*CAP
10 _045_:Y 9.051190080000001e-05
11 *3:1 0.00059318913656
12 *3:3 0.00012830406688
13 *3:5 4.017137184e-05
14 _046_:A 0.00024524937376
15 *3:6 0.00054396836416
16 *3:4 0
17 _075_:D 0
*RES
14 _045_:Y _045_:Y 0.4107142857142857
15 _045_:Y _045_:Y 0.30357142857142855
16 *3:1 *3:2 6.678571428571428
17 *3:3 *3:4 1.232142857142857
18 *3:5 *3:3 0.30357142857142855
19 _046_:A *3:5 2.464285714285714
20 *3:6 _075_:D 5.611607142857142
21 _045_:Y _045_:Y 0
22 _045_:Y *3:2 0
23 *3:4 *3:1 0
24 _046_:A _046_:A 0
25 _075_:D _075_:D 0
26 *3:6 *3:7 0
*END

*D_NET *4 0.00063039450424
*CONN
*I _076_:D I
*I _048_:LO O
*CAP
18 *4:1 0.00059318913656
19 *4:3 3.720536768e-05
20 _048_:LO 0
21 _076_:D 0
*RES
27 *4:1 *4:2 6.678571428571428
28 *4:3 _076_:D 0.27232142857142855
29 _048_:LO _048_:LO 0
30 _048_:LO *4:1 0
31 *4:3 *4:2 0
32 _076_:D _076_:D 0
*END

*D_NET *5 0.0005108214315199999
*CONN
*I _077_:D I
*I _049_:LO O
*CAP
22 _077_:D 9.313573184e-05
23 *5:2 0.00032836340175999997
24 _049_:LO 8.932229792e-05
25 *5:1 0
26 *5:4 0
*RES
33 _077_:D *5:1 0.8616071428571428
34 *5:2 *5:3 3.642857142857143
35 _049_:LO *5:4 0.8214285714285714
36 _077_:D _077_:D 0
37 *5:1 *5:2 0
38 *5:4 *5:3 0
39 _049_:LO _049_:LO 0
*END

*D_NET *6 0.00088009327772
*CONN
*I _078_:D I
*I _050_:LO O
*CAP
27 _078_:D 0.0001321175008
28 _050_:LO 0.00012830406688
29 *6:3 0.00061967171004
30 *6:1 0
31 *6:2 0
*RES
40 _078_:D *6:1 1.2723214285714284
41 _050_:LO *6:2 1.232142857142857
42 *6:3 *6:4 6.982142857142857
43 *6:1 *6:4 0
44 _078_:D _078_:D 0
45 _050_:LO _050_:LO 0
46 *6:2 *6:3 0
*END

*D_NET *7 0.00084733022712
*CONN
*I _079_:D I
*I _051_:LO O
*CAP
32 _079_:D 0.00067786226624
33 *7:2 0.00016946796088000002
34 *7:1 0
35 _051_:LO 0
*RES
47 _079_:D *7:1 7.022321428571428
48 *7:2 *7:3 1.8214285714285714
49 _079_:D _079_:D 0
50 *7:1 *7:2 0
51 _051_:LO _051_:LO 0
52 _051_:LO *7:3 0
*END

*D_NET *8 0.00031473861408
*CONN
*I _080_:D I
*I _052_:LO O
*CAP
36 _052_:LO 0.00031473861408
37 _080_:D 0
*RES
53 _052_:LO _080_:D 3.196428571428571
54 _080_:D _080_:D 0
55 _052_:LO _052_:LO 0
*END

*D_NET *9 0.00036556876944
*CONN
*I _081_:D I
*I _053_:LO O
*CAP
38 *9:1 0.00032836340175999997
39 *9:3 3.720536768e-05
40 _053_:LO 0
41 _081_:D 0
*RES
56 *9:1 *9:2 3.642857142857143
57 *9:3 _081_:D 0.27232142857142855
58 _053_:LO _053_:LO 0
59 _053_:LO *9:1 0
60 *9:3 *9:2 0
61 _081_:D _081_:D 0
*END

*D_NET *10 0.00048420657496
*CONN
*I _082_:D I
*I _054_:LO O
*CAP
42 *10:1 0.00016946796088000002
43 *10:3 0.00031473861408
44 _082_:D 0
45 _054_:LO 0
*RES
62 *10:1 *10:2 1.8214285714285714
63 *10:3 _082_:D 3.196428571428571
64 _082_:D _082_:D 0
65 _054_:LO _054_:LO 0
66 _054_:LO *10:1 0
67 *10:3 *10:2 0
*END

*D_NET *11 0.0004494658896
*CONN
*I _083_:D I
*I _055_:LO O
*CAP
46 _083_:D 1.5172193919999998e-05
47 *11:1 0.00043429369568000003
48 _055_:LO 0
*RES
68 _083_:D _083_:D 0.040178571428571425
69 *11:1 *11:2 4.857142857142857
70 _083_:D _083_:D 0
71 _083_:D *11:1 0
72 _055_:LO _055_:LO 0
73 _055_:LO *11:2 0
*END

*D_NET *12 0.00023498068376000004
*CONN
*I _084_:D I
*I _056_:LO O
*CAP
49 _056_:LO 5.034052896000001e-05
50 *12:2 0.00016946796088000002
51 _084_:D 1.5172193919999998e-05
52 *12:1 0
*RES
74 _056_:LO *12:1 0.4107142857142857
75 *12:2 *12:3 1.8214285714285714
76 _084_:D _084_:D 0.040178571428571425
77 _056_:LO _056_:LO 0
78 *12:1 *12:2 0
79 _084_:D *12:3 0
80 _084_:D _084_:D 0
*END

*D_NET *13 0.00103602035356
*CONN
*I _085_:D I
*I _057_:LO O
*CAP
53 *13:1 0.00061967171004
54 _085_:D 1.5172193919999998e-05
55 _057_:LO 0.00040117644959999997
56 *13:3 0
*RES
81 *13:1 *13:2 6.982142857142857
82 _085_:D _085_:D 0.040178571428571425
83 _057_:LO *13:3 4.107142857142857
84 *13:3 *13:1 0
85 _085_:D *13:2 0
86 _085_:D _085_:D 0
87 _057_:LO _057_:LO 0
*END

*D_NET *14 0.0008812337132000001
*CONN
*I _086_:D I
*I _058_:LO O
*CAP
57 _086_:D 0.00028804457664
58 *14:2 0.00059318913656
59 *14:1 0
60 _058_:LO 0
*RES
88 _086_:D *14:1 2.915178571428571
89 *14:2 *14:3 6.678571428571428
90 _086_:D _086_:D 0
91 *14:1 *14:2 0
92 _058_:LO _058_:LO 0
93 _058_:LO *14:3 0
*END

*D_NET *15 0.00097712162436
*CONN
*I _087_:D I
*I _059_:LO O
*CAP
61 *15:1 0.00046077626916000004
62 *15:3 0.00023211421248000002
63 _059_:LO 0.00028423114272
64 *15:4 0
65 _087_:D 0
*RES
94 *15:1 *15:2 5.160714285714286
95 *15:3 _087_:D 2.3258928571428568
96 _059_:LO *15:4 2.875
97 *15:4 *15:2 0
98 *15:3 *15:1 0
99 _087_:D _087_:D 0
100 _059_:LO _059_:LO 0
*END

*D_NET *16 0.000584139736
*CONN
*I _088_:D I
*I _060_:LO O
*CAP
66 *16:1 0.000584139736
67 _088_:D 0
68 _060_:LO 0
*RES
101 *16:1 _088_:D 5.611607142857142
102 *16:1 _060_:LO 0.30357142857142855
103 _088_:D _088_:D 0
104 _060_:LO _060_:LO 0
*END

*D_NET *17 0.00095360741592
*CONN
*I _089_:D I
*I _061_:LO O
*CAP
69 _061_:LO 0.00012830406688
70 *17:2 0.00059318913656
71 *17:4 0.00023211421248000002
72 *17:1 0
73 _089_:D 0
*RES
105 _061_:LO *17:1 1.232142857142857
106 *17:2 *17:3 6.678571428571428
107 *17:4 _089_:D 2.3258928571428568
108 _061_:LO _061_:LO 0
109 *17:1 *17:2 0
110 *17:4 *17:3 0
111 _089_:D _089_:D 0
*END

*D_NET *18 0.00045751253752000006
*CONN
*I _090_:D I
*I _062_:LO O
*CAP
74 *18:1 0.00016946796088000002
75 _090_:D 0.00028804457664
76 _062_:LO 0
77 *18:3 0
*RES
112 *18:1 *18:2 1.8214285714285714
113 _090_:D *18:3 2.915178571428571
114 _062_:LO _062_:LO 0
115 _062_:LO *18:1 0
116 *18:3 *18:2 0
117 _090_:D _090_:D 0
*END

*D_NET *19 0.00042149913359999997
*CONN
*I _091_:D I
*I _063_:LO O
*CAP
78 _091_:D 9.313573184e-05
79 *19:2 0.00032836340175999997
80 *19:1 0
81 _063_:LO 0
*RES
118 _091_:D *19:1 0.8616071428571428
119 *19:2 *19:3 3.642857142857143
120 _091_:D _091_:D 0
121 *19:1 *19:2 0
122 _063_:LO _063_:LO 0
123 _063_:LO *19:3 0
*END

*D_NET *20 0.0002503159612
*CONN
*I _092_:D I
*I _064_:LO O
*CAP
82 *20:1 8.084800032e-05
83 *20:2 0.00016946796088000002
84 _092_:D 0
85 _064_:LO 0
*RES
124 *20:1 _092_:D 0.732142857142857
125 *20:2 *20:3 1.8214285714285714
126 _092_:D _092_:D 0
127 *20:1 *20:2 0
128 _064_:LO _064_:LO 0
129 _064_:LO *20:3 0
*END

*D_NET *21 0.00020667332856000003
*CONN
*I _093_:D I
*I _065_:LO O
*CAP
86 *21:1 3.720536768e-05
87 *21:2 0.00016946796088000002
88 _093_:D 0
89 _065_:LO 0
*RES
130 *21:1 _093_:D 0.27232142857142855
131 *21:2 *21:3 1.8214285714285714
132 _093_:D _093_:D 0
133 *21:1 *21:2 0
134 _065_:LO _065_:LO 0
135 _065_:LO *21:3 0
*END

*D_NET *22 0.00063844115216
*CONN
*I _094_:D I
*I _066_:LO O
*CAP
90 *22:1 0.0003100777504
91 *22:2 0.00032836340175999997
92 _094_:D 0
93 _066_:LO 0
*RES
136 *22:1 _094_:D 3.1473214285714284
137 *22:2 *22:3 3.642857142857143
138 _094_:D _094_:D 0
139 *22:1 *22:2 0
140 _066_:LO _066_:LO 0
141 _066_:LO *22:3 0
*END

*D_NET *23 0.00030158546168000005
*CONN
*I _095_:D I
*I _067_:LO O
*CAP
94 *23:1 0.0001321175008
95 *23:2 0.00016946796088000002
96 _095_:D 0
97 _067_:LO 0
*RES
142 *23:1 _095_:D 1.2723214285714284
143 *23:2 *23:3 1.8214285714285714
144 _095_:D _095_:D 0
145 *23:1 *23:2 0
146 _067_:LO _067_:LO 0
147 _067_:LO *23:3 0
*END

*D_NET *24 0.0002503159612
*CONN
*I _096_:D I
*I _068_:LO O
*CAP
98 *24:1 0.00016946796088000002
99 *24:3 8.084800032e-05
100 _068_:LO 0
101 _096_:D 0
*RES
148 *24:1 *24:2 1.8214285714285714
149 *24:3 _096_:D 0.732142857142857
150 _068_:LO _068_:LO 0
151 _068_:LO *24:1 0
152 *24:3 *24:2 0
153 _096_:D _096_:D 0
*END

*D_NET *25 0.00070721760668
*CONN
*I _097_:D I
*I _069_:LO O
*CAP
102 *25:1 3.720536768e-05
103 *25:2 0.00061967171004
104 _069_:LO 5.034052896000001e-05
105 _097_:D 0
106 *25:4 0
*RES
154 *25:1 _097_:D 0.27232142857142855
155 *25:2 *25:3 6.982142857142857
156 _069_:LO *25:4 0.4107142857142857
157 _097_:D _097_:D 0
158 *25:1 *25:2 0
159 *25:4 *25:3 0
160 _069_:LO _069_:LO 0
*END

*D_NET *26 0.0014976690172800002
*CONN
*I _098_:D I
*I _070_:LO O
*CAP
107 _070_:LO 4.017137184e-05
108 *26:1 0.0014574976454400001
109 _098_:D 0
*RES
161 _070_:LO *26:1 0.30357142857142855
162 *26:1 _098_:D 15.236607142857142
163 _070_:LO _070_:LO 0
164 _098_:D _098_:D 0
*END

*D_NET *27 0.0008447087569599999
*CONN
*I _099_:D I
*I _071_:LO O
*CAP
110 _071_:LO 0.00032321291168
111 *27:2 0.00032836340175999997
112 *27:4 0.00019313244352
113 *27:1 0
114 _099_:D 0
*RES
165 _071_:LO *27:1 3.2857142857142856
166 *27:2 *27:3 3.642857142857143
167 *27:4 _099_:D 1.9151785714285712
168 _071_:LO _071_:LO 0
169 *27:1 *27:2 0
170 *27:4 *27:3 0
171 _099_:D _099_:D 0
*END

*D_NET *28 0.0006401336508
*CONN
*I _100_:D I
*I _072_:LO O
*CAP
115 *28:1 0.00016946796088000002
116 *28:3 0.00047066568992
117 _072_:LO 0
118 _100_:D 0
*RES
172 *28:1 *28:2 1.8214285714285714
173 *28:3 _100_:D 4.8392857142857135
174 _072_:LO _072_:LO 0
175 _072_:LO *28:1 0
176 *28:3 *28:2 0
177 _100_:D _100_:D 0
*END

*D_NET *29 0.00044056394231999996
*CONN
*I _101_:D I
*I _073_:LO O
*CAP
119 *29:1 0.00016946796088000002
120 _101_:D 0.00027109598143999997
121 _073_:LO 0
122 *29:3 0
*RES
178 *29:1 *29:2 1.8214285714285714
179 _101_:D *29:3 2.7366071428571423
180 _073_:LO _073_:LO 0
181 _073_:LO *29:1 0
182 *29:3 *29:2 0
183 _101_:D _101_:D 0
*END

*D_NET *30 0.00069140315128
*CONN
*I _102_:D I
*I _047_:LO O
*CAP
123 *30:1 0.00016946796088000002
124 _102_:D 0.0005219351904
125 _047_:LO 0
126 *30:3 0
*RES
184 *30:1 *30:2 1.8214285714285714
185 _102_:D *30:3 5.379464285714286
186 _047_:LO _047_:LO 0
187 _047_:LO *30:1 0
188 *30:3 *30:2 0
189 _102_:D _102_:D 0
*END

*D_NET *31 0.00077856715092
*CONN
*I _045_:A I
*I _037_:X O
*CAP
127 *31:1 0.00077856715092
128 _045_:A 0
129 _037_:X 0
*RES
190 *31:1 *31:2 8.803571428571427
191 _045_:A _045_:A 0
192 _045_:A *31:1 0
193 _037_:X _037_:X 0
194 _037_:X *31:2 0
*END

*D_NET *32 0.00043166907767999994
*CONN
*I _045_:B I
*I _038_:X O
*CAP
130 *32:1 0.00038132854871999994
131 *32:3 5.034052896000001e-05
132 _045_:B 0
133 _038_:X 0
*RES
195 *32:1 *32:2 4.249999999999999
196 *32:3 _038_:X 0.4107142857142857
197 _045_:B _045_:B 0
198 _045_:B *32:2 0
199 *32:3 *32:1 0
200 _038_:X _038_:X 0
*END

*D_NET *33 0.001626684405
*CONN
*I _045_:C I
*I _039_:X O
*CAP
134 *33:1 0.00063625666624
135 *33:3 0.0009904277387600001
136 _045_:C 0
137 *33:2 0
138 _039_:X 0
*RES
201 *33:1 _045_:C 0.30357142857142855
202 *33:1 *33:2 6.160714285714286
203 *33:3 *33:4 11.232142857142856
204 _045_:C _045_:C 0
205 *33:2 *33:4 0
206 _039_:X _039_:X 0
207 _039_:X *33:3 0
*END

*D_NET *34 0.00019332591635999998
*CONN
*I _044_:A I
*I _040_:X O
*CAP
139 *34:1 5.034052896000001e-05
140 *34:2 0.00014298538739999998
141 _040_:X 0
142 _044_:A 0
*RES
208 *34:1 _040_:X 0.4107142857142857
209 *34:2 *34:3 1.5178571428571426
210 _040_:X _040_:X 0
211 *34:1 *34:2 0
212 _044_:A _044_:A 0
213 _044_:A *34:3 0
*END

*D_NET *35 0.00113271518364
*CONN
*I _044_:B I
*I _041_:X O
*CAP
143 *35:1 0.00104339288572
144 _041_:X 8.932229792e-05
145 _044_:B 0
*RES
214 *35:1 *35:2 11.839285714285714
215 _041_:X _041_:X 0.8214285714285714
216 _044_:B _044_:B 0
217 _044_:B *35:1 0
218 _041_:X *35:2 0
219 _041_:X _041_:X 0
*END

*D_NET *36 0.0014313455496399998
*CONN
*I _044_:C I
*I _042_:X O
*CAP
146 _044_:C 0.00015160838528
147 *36:2 0.00056670656308
148 *36:4 0.00071303060128
149 *36:1 0
150 _042_:X 0
*RES
220 _044_:C *36:1 1.4776785714285714
221 *36:2 *36:3 6.374999999999999
222 *36:4 _042_:X 7.3928571428571415
223 _044_:C _044_:C 0
224 *36:1 *36:2 0
225 *36:4 *36:3 0
226 _042_:X _042_:X 0
*END

*D_NET *37 0.0018378700901200003
*CONN
*I _044_:D I
*I _043_:X O
*CAP
151 *37:1 0.0018378700901200003
152 _044_:D 0
153 _043_:X 0
*RES
227 *37:1 *37:2 20.94642857142857
228 _044_:D _044_:D 0
229 _044_:D *37:1 0
230 _043_:X _043_:X 0
231 _043_:X *37:2 0
*END

*D_NET *38 0.0022513621907200004
*CONN
*I _045_:D I
*I _044_:X O
*CAP
154 _045_:D 4.017137184e-05
155 *38:1 0.00172655659424
156 *38:3 0.00043429369568000003
157 *38:5 5.034052896000001e-05
158 *38:2 0
159 _044_:X 0
*RES
232 _045_:D *38:1 0.30357142857142855
233 *38:1 *38:2 18.07142857142857
234 *38:3 *38:4 4.857142857142857
235 *38:5 _044_:X 0.4107142857142857
236 _045_:D _045_:D 0
237 *38:2 *38:4 0
238 *38:5 *38:3 0
239 _044_:X _044_:X 0
*END

*D_NET *39 0.00173947174396
*CONN
*I _075_:Q O
*I _041_:B I
*CAP
160 _075_:Q 0.00090793944608
161 *39:2 0.00083153229788
162 *39:1 0
163 _041_:B 0
*RES
240 _075_:Q *39:1 9.446428571428571
241 *39:2 *39:3 9.410714285714285
242 _075_:Q _075_:Q 0
243 *39:1 *39:2 0
244 _041_:B _041_:B 0
245 _041_:B *39:3 0
*END

*D_NET *40 0.00105847960308
*CONN
*I _085_:Q O
*I _038_:C I
*CAP
164 *40:1 0.00011262661632
165 *40:2 0.00077856715092
166 _085_:Q 0.00016728583584
167 _038_:C 0
168 *40:4 0
*RES
246 *40:1 _038_:C 1.0669642857142856
247 *40:2 *40:3 8.803571428571427
248 _085_:Q *40:4 1.6428571428571428
249 _038_:C _038_:C 0
250 *40:1 *40:2 0
251 *40:4 *40:3 0
252 _085_:Q _085_:Q 0
*END

*D_NET *41 0.00032321291168
*CONN
*I _086_:Q O
*I _038_:B I
*CAP
169 _086_:Q 0.00032321291168
170 _038_:B 0
*RES
253 _086_:Q _038_:B 3.2857142857142856
254 _038_:B _038_:B 0
255 _086_:Q _086_:Q 0
*END

*D_NET *42 0.00021980848984000004
*CONN
*I _087_:Q O
*I _038_:A I
*CAP
171 *42:1 0.00016946796088000002
172 *42:3 5.034052896000001e-05
173 _038_:A 0
174 _087_:Q 0
*RES
256 *42:1 *42:2 1.8214285714285714
257 *42:3 _087_:Q 0.4107142857142857
258 _038_:A _038_:A 0
259 _038_:A *42:1 0
260 *42:3 *42:2 0
261 _087_:Q _087_:Q 0
*END

*D_NET *43 0.00053463100656
*CONN
*I _088_:Q O
*I _042_:D I
*CAP
175 _088_:Q 0.0002062676048
176 *43:2 0.00032836340175999997
177 *43:1 0
178 _042_:D 0
*RES
262 _088_:Q *43:1 2.0535714285714284
263 *43:2 *43:3 3.642857142857143
264 _088_:Q _088_:Q 0
265 *43:1 *43:2 0
266 _042_:D _042_:D 0
267 _042_:D *43:3 0
*END

*D_NET *44 0.00026474025824
*CONN
*I _089_:Q O
*I _042_:C I
*CAP
179 _089_:Q 0.00026474025824
180 _042_:C 0
*RES
268 _089_:Q _042_:C 2.669642857142857
269 _089_:Q _089_:Q 0
270 _042_:C _042_:C 0
*END

*D_NET *45 0.0007170406558799999
*CONN
*I _090_:Q O
*I _042_:A I
*CAP
181 *45:1 0.00035484597524
182 *45:3 0.0003621946806399999
183 _042_:A 0
184 _090_:Q 0
*RES
271 *45:1 *45:2 3.946428571428571
272 *45:3 _090_:Q 3.6964285714285707
273 _042_:A _042_:A 0
274 _042_:A *45:1 0
275 *45:3 *45:2 0
276 _090_:Q _090_:Q 0
*END

*D_NET *46 0.00029628784524
*CONN
*I _091_:Q O
*I _042_:B I
*CAP
185 *46:1 9.002024044000002e-05
186 _091_:Q 0.0002062676048
187 _042_:B 0
188 *46:3 0
*RES
277 *46:1 *46:2 0.9107142857142857
278 _091_:Q *46:3 2.0535714285714284
279 _042_:B _042_:B 0
280 _042_:B *46:1 0
281 *46:3 *46:2 0
282 _091_:Q _091_:Q 0
*END

*D_NET *47 0.0008075033892799999
*CONN
*I _092_:Q O
*I _043_:D I
*CAP
189 *47:1 0.00032836340175999997
190 *47:3 0.0004791399875199999
191 _092_:Q 0
192 _043_:D 0
*RES
283 *47:1 *47:2 3.642857142857143
284 *47:3 _043_:D 4.928571428571428
285 _092_:Q _092_:Q 0
286 _092_:Q *47:1 0
287 *47:3 *47:2 0
288 _043_:D _043_:D 0
*END

*D_NET *48 0.00017002159795999997
*CONN
*I _093_:Q O
*I _043_:C I
*CAP
193 *48:1 0.00014298538739999998
194 _043_:C 2.703621056e-05
195 _093_:Q 0
196 *48:3 0
*RES
289 *48:1 *48:2 1.5178571428571426
290 _043_:C *48:3 0.16517857142857142
291 _093_:Q _093_:Q 0
292 _093_:Q *48:1 0
293 *48:3 *48:2 0
294 _043_:C _043_:C 0
*END

*D_NET *49 0.00068603107572
*CONN
*I _094_:Q O
*I _043_:B I
*CAP
197 _094_:Q 5.034052896000001e-05
198 *49:2 0.00056670656308
199 _043_:B 6.898398368e-05
200 *49:1 0
*RES
295 _094_:Q *49:1 0.4107142857142857
296 *49:2 *49:3 6.374999999999999
297 _043_:B _043_:B 0.6071428571428571
298 _094_:Q _094_:Q 0
299 *49:1 *49:2 0
300 _043_:B *49:3 0
301 _043_:B _043_:B 0
*END

*D_NET *50 0.00105537738104
*CONN
*I _076_:Q O
*I _041_:A I
*CAP
201 *50:1 0.00038132854871999994
202 _076_:Q 0.00067404883232
203 _041_:A 0
204 *50:3 0
*RES
302 *50:1 *50:2 4.249999999999999
303 _076_:Q *50:3 6.982142857142857
304 _041_:A _041_:A 0
305 _041_:A *50:2 0
306 *50:3 *50:1 0
307 _076_:Q _076_:Q 0
*END

*D_NET *51 0.00054861438456
*CONN
*I _095_:Q O
*I _043_:A I
*CAP
205 *51:1 0.00038132854871999994
206 _095_:Q 0.00016728583584
207 _043_:A 0
208 *51:3 0
*RES
308 *51:1 *51:2 4.249999999999999
309 _095_:Q *51:3 1.6428571428571428
310 _043_:A _043_:A 0
311 _043_:A *51:2 0
312 *51:3 *51:1 0
313 _095_:Q _095_:Q 0
*END

*D_NET *52 0.00020582511184000002
*CONN
*I _096_:Q O
*I _040_:D I
*CAP
209 *52:1 0.00011650281392
210 *52:3 8.932229792e-05
211 _096_:Q 0
212 _040_:D 0
*RES
314 *52:1 *52:2 1.2142857142857142
315 *52:3 _040_:D 0.8214285714285714
316 _096_:Q _096_:Q 0
317 _096_:Q *52:1 0
318 *52:3 *52:2 0
319 _040_:D _040_:D 0
*END

*D_NET *53 0.00072967370836
*CONN
*I _097_:Q O
*I _040_:C I
*CAP
213 _097_:Q 5.034052896000001e-05
214 *53:2 0.00056670656308
215 *53:4 0.00011262661632
216 *53:1 0
217 _040_:C 0
*RES
320 _097_:Q *53:1 0.4107142857142857
321 *53:2 *53:3 6.374999999999999
322 *53:4 _040_:C 1.0669642857142856
323 _097_:Q _097_:Q 0
324 *53:1 *53:2 0
325 *53:4 *53:3 0
326 _040_:C _040_:C 0
*END

*D_NET *54 0.00019595053436
*CONN
*I _098_:Q O
*I _040_:B I
*CAP
218 *54:1 0.00019595053436
219 _098_:Q 0
220 _040_:B 0
*RES
327 *54:1 *54:2 2.1249999999999996
328 _098_:Q _098_:Q 0
329 _098_:Q *54:1 0
330 _040_:B _040_:B 0
331 _040_:B *54:2 0
*END

*D_NET *55 0.0008214867672799999
*CONN
*I _099_:Q O
*I _040_:A I
*CAP
221 *55:1 0.00044015821855999997
222 *55:2 0.00038132854871999994
223 _099_:Q 0
224 _040_:A 0
*RES
332 *55:1 _099_:Q 4.517857142857142
333 *55:2 *55:3 4.249999999999999
334 _099_:Q _099_:Q 0
335 *55:1 *55:2 0
336 _040_:A _040_:A 0
337 _040_:A *55:3 0
*END

*D_NET *56 0.0007405548643199999
*CONN
*I _100_:Q O
*I _041_:D I
*CAP
225 _100_:Q 0.0005181217564799999
226 *56:2 0.00022243310784000002
227 *56:1 0
228 _041_:D 0
*RES
338 _100_:Q *56:1 5.339285714285714
339 *56:2 *56:3 2.4285714285714284
340 _100_:Q _100_:Q 0
341 *56:1 *56:2 0
342 _041_:D _041_:D 0
343 _041_:D *56:3 0
*END

*D_NET *57 0.00112233917536
*CONN
*I _101_:Q O
*I _041_:C I
*CAP
229 _101_:Q 0.00112233917536
230 _041_:C 0
*RES
344 _101_:Q _041_:C 11.70535714285714
345 _101_:Q _101_:Q 0
346 _041_:C _041_:C 0
*END

*D_NET *58 0.00118041850324
*CONN
*I _102_:Q O
*I _039_:D I
*CAP
231 _102_:Q 0.0004791399875199999
232 *58:2 0.0005582931283199999
233 *58:4 0.00014298538739999998
234 *58:3 0
235 _039_:D 0
*RES
347 _102_:Q *58:1 4.928571428571428
348 *58:2 *58:1 0.30357142857142855
349 *58:2 *58:3 5.339285714285714
350 *58:4 *58:5 1.5178571428571426
351 _102_:Q _102_:Q 0
352 *58:3 *58:4 0
353 _039_:D _039_:D 0
354 _039_:D *58:5 0
*END

*D_NET *59 0.00042289783955999996
*CONN
*I _077_:Q O
*I _039_:C I
*CAP
236 _077_:Q 0.00012830406688
237 *59:2 0.00014298538739999998
238 *59:4 0.00015160838528
239 *59:1 0
240 _039_:C 0
*RES
355 _077_:Q *59:1 1.232142857142857
356 *59:2 *59:3 1.5178571428571426
357 *59:4 _039_:C 1.4776785714285714
358 _077_:Q _077_:Q 0
359 *59:1 *59:2 0
360 *59:4 *59:3 0
361 _039_:C _039_:C 0
*END

*D_NET *60 0.00032321291168
*CONN
*I _078_:Q O
*I _039_:B I
*CAP
241 _078_:Q 0.00032321291168
242 _039_:B 0
*RES
362 _078_:Q _039_:B 3.2857142857142856
363 _039_:B _039_:B 0
364 _078_:Q _078_:Q 0
*END

*D_NET *61 0.00054861438456
*CONN
*I _079_:Q O
*I _039_:A I
*CAP
243 *61:1 0.00038132854871999994
244 _079_:Q 0.00016728583584
245 _039_:A 0
246 *61:3 0
*RES
365 *61:1 *61:2 4.249999999999999
366 _079_:Q *61:3 1.6428571428571428
367 _039_:A _039_:A 0
368 _039_:A *61:2 0
369 *61:3 *61:1 0
370 _079_:Q _079_:Q 0
*END

*D_NET *62 0.0002854207456
*CONN
*I _080_:Q O
*I _037_:D I
*CAP
247 _037_:D 4.017137184e-05
248 _080_:Q 0.00024524937376
*RES
371 _037_:D *62:1 0.30357142857142855
372 _080_:Q *62:1 2.464285714285714
373 _037_:D _037_:D 0
374 _080_:Q _080_:Q 0
*END

*D_NET *63 0.00025934389587999995
*CONN
*I _081_:Q O
*I _037_:C I
*CAP
249 _037_:C 2.703621056e-05
250 *63:2 0.00014298538739999998
251 *63:4 8.932229792e-05
252 *63:1 0
253 _081_:Q 0
*RES
375 _037_:C *63:1 0.16517857142857142
376 *63:2 *63:3 1.5178571428571426
377 *63:4 _081_:Q 0.8214285714285714
378 _037_:C _037_:C 0
379 *63:1 *63:2 0
380 *63:4 *63:3 0
381 _081_:Q _081_:Q 0
*END

*D_NET *64 0.00057509695804
*CONN
*I _082_:Q O
*I _037_:B I
*CAP
254 *64:1 0.0004078111222
255 _082_:Q 0.00016728583584
256 _037_:B 0
257 *64:3 0
*RES
382 *64:1 *64:2 4.553571428571428
383 _082_:Q *64:3 1.6428571428571428
384 _037_:B _037_:B 0
385 _037_:B *64:1 0
386 *64:3 *64:2 0
387 _082_:Q _082_:Q 0
*END

*D_NET *65 0.0003492529922
*CONN
*I _083_:Q O
*I _037_:A I
*CAP
258 *65:1 0.00014298538739999998
259 *65:3 0.0002062676048
260 _083_:Q 0
261 _037_:A 0
*RES
388 *65:1 *65:2 1.5178571428571426
389 *65:3 _037_:A 2.0535714285714284
390 _083_:Q _083_:Q 0
391 _083_:Q *65:1 0
392 *65:3 *65:2 0
393 _037_:A _037_:A 0
*END

*D_NET *66 0.00061259454448
*CONN
*I _084_:Q O
*I _038_:D I
*CAP
262 *66:1 0.00032836340175999997
263 _084_:Q 0.00028423114272
264 _038_:D 0
265 *66:3 0
*RES
394 *66:1 *66:2 3.642857142857143
395 _084_:Q *66:3 2.875
396 _038_:D _038_:D 0
397 _038_:D *66:1 0
398 *66:3 *66:2 0
399 _084_:Q _084_:Q 0
*END

*D_NET *67 0.012197047503200002
*CONN
*I output1:A I
*I _074_:Q O
*CAP
266 *67:1 0.006260459861280001
267 *67:3 0.00593658764192
268 output1:A 0
269 _074_:Q 0
*RES
400 *67:1 *67:2 71.64285714285712
401 *67:3 _074_:Q 62.42857142857142
402 output1:A output1:A 0
403 output1:A *67:1 0
404 *67:3 *67:2 0
405 _074_:Q _074_:Q 0
*END

*D_NET *68 0.00330323162596
*CONN
*I clkbuf_1_1_0_clk:A I
*I clkbuf_1_0_0_clk:A I
*I clkbuf_0_clk:X O
*CAP
270 clkbuf_0_clk:X 0.0017655383632
271 *68:1 6.898398368e-05
272 *68:2 0.00024891568132000004
273 *68:4 0.00121979359776
274 clkbuf_1_1_0_clk:A 0
275 clkbuf_1_0_0_clk:A 0
*RES
406 clkbuf_0_clk:X *68:1 18.482142857142854
407 *68:1 clkbuf_1_1_0_clk:A 0.6071428571428571
408 *68:2 *68:3 2.7321428571428568
409 *68:4 clkbuf_0_clk:X 12.732142857142856
410 clkbuf_0_clk:X clkbuf_0_clk:X 0
411 clkbuf_1_1_0_clk:A clkbuf_1_1_0_clk:A 0
412 clkbuf_1_0_0_clk:A clkbuf_1_0_0_clk:A 0
413 clkbuf_1_0_0_clk:A *68:3 0
414 *68:4 *68:2 0
*END

*D_NET *69 0.00246130869444
*CONN
*I clkbuf_2_1_0_clk:A I
*I clkbuf_2_0_0_clk:A I
*I clkbuf_1_0_0_clk:X O
*CAP
276 clkbuf_1_0_0_clk:X 0.00024524937376
277 *69:2 0.00059318913656
278 *69:4 0.0005181217564799999
279 clkbuf_2_0_0_clk:A 0.00016728583584
280 *69:6 0.0009374625918000002
281 *69:1 0
282 clkbuf_2_1_0_clk:A 0
283 *69:5 0
284 *69:8 0
*RES
415 clkbuf_1_0_0_clk:X *69:1 2.464285714285714
416 *69:2 *69:3 6.678571428571428
417 *69:4 clkbuf_2_1_0_clk:A 5.339285714285714
418 clkbuf_2_0_0_clk:A *69:5 1.6428571428571428
419 *69:6 *69:7 10.625
420 clkbuf_1_0_0_clk:X clkbuf_1_0_0_clk:X 0
421 *69:1 *69:2 0
422 *69:4 *69:3 0
423 clkbuf_2_1_0_clk:A clkbuf_2_1_0_clk:A 0
424 clkbuf_2_0_0_clk:A clkbuf_2_0_0_clk:A 0
425 *69:5 *69:6 0
426 *69:8 *69:7 0
*END

*D_NET *70 0.00186077085248
*CONN
*I clkbuf_2_3_0_clk:A I
*I clkbuf_2_2_0_clk:A I
*I clkbuf_1_1_0_clk:X O
*CAP
285 *70:1 0.0005181217564799999
286 *70:2 0.0008050497244000001
287 clkbuf_2_2_0_clk:A 5.034052896000001e-05
288 *70:5 0.00048725884264
289 clkbuf_1_1_0_clk:X 0
290 clkbuf_2_3_0_clk:A 0
291 *70:4 0
*RES
427 *70:1 clkbuf_1_1_0_clk:X 5.339285714285714
428 *70:2 *70:3 9.107142857142856
429 clkbuf_2_2_0_clk:A *70:4 0.4107142857142857
430 *70:5 *70:2 5.4642857142857135
431 clkbuf_1_1_0_clk:X clkbuf_1_1_0_clk:X 0
432 *70:1 *70:2 0
433 clkbuf_2_3_0_clk:A clkbuf_2_3_0_clk:A 0
434 clkbuf_2_3_0_clk:A *70:3 0
435 clkbuf_2_2_0_clk:A clkbuf_2_2_0_clk:A 0
436 *70:4 *70:5 0
*END

*D_NET *71 0.004676357892000001
*CONN
*I _074_:CLK I
*I _075_:CLK I
*I _077_:CLK I
*I _078_:CLK I
*I _079_:CLK I
*I _084_:CLK I
*I _086_:CLK I
*I _087_:CLK I
*I _102_:CLK I
*I clkbuf_2_0_0_clk:X O
*CAP
292 _087_:CLK 0.00086895767712
293 *71:1 0.00012830406688
294 *71:2 0.00032836340175999997
295 *71:4 4.017137184e-05
296 _074_:CLK 0.00016728583584
297 *71:7 0.00030188082828000006
298 *71:8 0.00019595053436
299 *71:9 5.029638022e-05
300 *71:10 4.640188412000001e-05
301 *71:11 0.00015622667414000004
302 *71:12 0.00011932451264000001
303 *71:14 0.00024524937376
304 *71:15 0.00024891568132000004
305 _102_:CLK 4.017137184e-05
306 *71:17 0.00022243310784000002
307 *71:19 8.932229792e-05
308 *71:20 0.00019595053436
309 *71:16 0.00075201237024
310 *71:21 0.0004791399875199999
311 _075_:CLK 0
312 clkbuf_2_0_0_clk:X 0
313 *71:6 0
314 _078_:CLK 0
315 *71:13 0
316 _077_:CLK 0
317 _079_:CLK 0
318 _084_:CLK 0
319 _086_:CLK 0
*RES
437 _087_:CLK _075_:CLK 9.035714285714285
438 *71:1 clkbuf_2_0_0_clk:X 1.232142857142857
439 *71:2 *71:3 3.642857142857143
440 *71:4 *71:5 0.30357142857142855
441 _074_:CLK *71:6 1.6428571428571428
442 *71:7 *71:2 3.339285714285714
443 *71:8 *71:7 2.1249999999999996
444 *71:9 *71:10 0.45535714285714285
445 *71:10 *71:11 0.4107142857142857
446 *71:11 *71:8 1.669642857142857
447 *71:12 _077_:CLK 0.4107142857142857
448 *71:12 *71:13 0.6071428571428571
449 *71:14 _079_:CLK 2.464285714285714
450 *71:15 *71:9 2.7321428571428568
451 _102_:CLK *71:16 0.30357142857142855
452 *71:17 *71:18 2.4285714285714284
453 *71:19 _086_:CLK 0.8214285714285714
454 *71:20 *71:17 2.1249999999999996
455 *71:16 *71:13 7.803571428571428
456 *71:21 _087_:CLK 4.928571428571428
457 _087_:CLK _087_:CLK 0
458 _075_:CLK _075_:CLK 0
459 clkbuf_2_0_0_clk:X clkbuf_2_0_0_clk:X 0
460 *71:1 *71:2 0
461 *71:4 *71:3 0
462 _074_:CLK _074_:CLK 0
463 *71:6 *71:7 0
464 _078_:CLK _078_:CLK 0
465 _078_:CLK *71:8 0
466 *71:13 *71:9 0
467 _077_:CLK _077_:CLK 0
468 _079_:CLK _079_:CLK 0
469 *71:14 *71:15 0
470 _102_:CLK _102_:CLK 0
471 *71:21 *71:17 0
472 _084_:CLK _084_:CLK 0
473 _084_:CLK *71:18 0
474 _086_:CLK _086_:CLK 0
475 *71:19 *71:20 0
*END

*D_NET *72 0.004107295998840001
*CONN
*I _076_:CLK I
*I _080_:CLK I
*I _081_:CLK I
*I _082_:CLK I
*I _083_:CLK I
*I _085_:CLK I
*I _092_:CLK I
*I _100_:CLK I
*I clkbuf_2_1_0_clk:X O
*CAP
320 *72:1 0.0002062676048
321 *72:2 0.00019595053436
322 *72:4 5.029638022e-05
323 *72:5 4.640188412000001e-05
324 *72:6 0.00026215696806
325 *72:7 0.00032836340175999997
326 *72:8 0.00038132854871999994
327 *72:10 0.00024643897664
328 _081_:CLK 0.00083116551104
329 *72:13 0.00016728583584
330 *72:14 0.00024891568132000004
331 *72:15 4.017137184e-05
332 *72:11 0.0002062676048
333 *72:16 0.00024524937376
334 *72:17 0.00019595053436
335 *72:19 0.0001088131824
336 _085_:CLK 6.983141344e-05
337 *72:21 4.017137184e-05
338 *72:22 0.00023626981952
339 _082_:CLK 0
340 *72:23 0
341 *72:20 0
342 _083_:CLK 0
343 _100_:CLK 0
344 _092_:CLK 0
345 clkbuf_2_1_0_clk:X 0
346 _076_:CLK 0
347 _080_:CLK 0
*RES
476 *72:1 _081_:CLK 2.0535714285714284
477 *72:2 *72:3 2.1249999999999996
478 *72:4 *72:5 0.45535714285714285
479 *72:5 *72:6 0.4107142857142857
480 *72:6 *72:2 2.883928571428571
481 *72:7 *72:4 3.642857142857143
482 *72:8 *72:9 4.249999999999999
483 *72:10 *72:11 2.0535714285714284
484 *72:10 *72:12 0.30357142857142855
485 _081_:CLK *72:12 8.214285714285714
486 _081_:CLK _081_:CLK 0.30357142857142855
487 *72:13 _100_:CLK 1.6428571428571428
488 *72:14 *72:8 2.7321428571428568
489 *72:15 _092_:CLK 0.30357142857142855
490 *72:11 *72:15 2.0535714285714284
491 *72:16 clkbuf_2_1_0_clk:X 2.464285714285714
492 *72:17 *72:18 2.1249999999999996
493 *72:19 *72:20 1.0267857142857142
494 _085_:CLK *72:21 0.6160714285714285
495 *72:21 *72:19 0.30357142857142855
496 *72:22 _080_:CLK 0.6071428571428571
497 *72:22 *72:23 1.6428571428571428
498 _081_:CLK _081_:CLK 0
499 *72:1 *72:2 0
500 _082_:CLK _082_:CLK 0
501 _082_:CLK *72:3 0
502 *72:23 *72:4 0
503 *72:20 *72:7 0
504 _083_:CLK _083_:CLK 0
505 _083_:CLK *72:8 0
506 *72:11 *72:9 0
507 _100_:CLK _100_:CLK 0
508 *72:13 *72:14 0
509 _092_:CLK _092_:CLK 0
510 clkbuf_2_1_0_clk:X clkbuf_2_1_0_clk:X 0
511 *72:16 *72:24 0
512 _076_:CLK _076_:CLK 0
513 _076_:CLK *72:17 0
514 _100_:CLK *72:18 0
515 _085_:CLK _085_:CLK 0
516 _080_:CLK _080_:CLK 0
*END

*D_NET *73 0.00339962943132
*CONN
*I _088_:CLK I
*I _096_:CLK I
*I _097_:CLK I
*I _098_:CLK I
*I _099_:CLK I
*I clkbuf_2_2_0_clk:X O
*CAP
348 *73:1 0.0004078111222
349 *73:3 0.00067404883232
350 *73:4 0.00022243310784000002
351 _099_:CLK 0.00075320197312
352 clkbuf_2_2_0_clk:X 0.0002062676048
353 *73:5 0.00038132854871999994
354 _088_:CLK 0.0004791399875199999