*SPEF "IEEE 1481-1998"
*DESIGN "clk_divider"
*DATE "Mon May 10 03:39:15 2021"
*VENDOR "AUC CSCE Department"
*PROGRAM "SPEF Extractor"
*VERSION "1.0"
*DESIGN_FLOW "PIN_CAP NONE"
*DIVIDER /
*DELIMITER :
*BUS_DELIMITER []
*T_UNIT 1.00000 NS
*C_UNIT 1.00000 PF
*R_UNIT 1.00000 OHM
*L_UNIT 1.00000 HENRY


*NAME_MAP
*0 clk
*1 clock_out
*2 _000_
*3 _001_
*4 _002_
*5 _003_
*6 _004_
*7 _005_
*8 _006_
*9 _007_
*10 _008_
*11 _009_
*12 _010_
*13 _011_
*14 _012_
*15 _013_
*16 _014_
*17 _015_
*18 _016_
*19 _017_
*20 _018_
*21 _019_
*22 _020_
*23 _021_
*24 _022_
*25 _023_
*26 _024_
*27 _025_
*28 _026_
*29 _027_
*30 _028_
*31 _029_
*32 _030_
*33 _031_
*34 _032_
*35 _033_
*36 _034_
*37 _035_
*38 _036_
*39 _037_
*40 _038_
*41 _039_
*42 _040_
*43 _041_
*44 _042_
*45 _043_
*46 _044_
*47 _045_
*48 _046_
*49 _047_
*50 _048_
*51 _049_
*52 _050_
*53 _051_
*54 _052_
*55 _053_
*56 _054_
*57 _055_
*58 _056_
*59 _057_
*60 _058_
*61 _059_
*62 _060_
*63 _061_
*64 _062_
*65 _063_
*66 _064_
*67 _065_
*68 _066_
*69 _067_
*70 _068_
*71 _069_
*72 _070_
*73 counter\[0\]
*74 counter\[10\]
*75 counter\[11\]
*76 counter\[12\]
*77 counter\[13\]
*78 counter\[14\]
*79 counter\[15\]
*80 counter\[16\]
*81 counter\[17\]
*82 counter\[18\]
*83 counter\[19\]
*84 counter\[1\]
*85 counter\[20\]
*86 counter\[21\]
*87 counter\[22\]
*88 counter\[23\]
*89 counter\[24\]
*90 counter\[25\]
*91 counter\[26\]
*92 counter\[27\]
*93 counter\[2\]
*94 counter\[3\]
*95 counter\[4\]
*96 counter\[5\]
*97 counter\[6\]
*98 counter\[7\]
*99 counter\[8\]
*100 counter\[9\]
*101 net1
*102 clknet_0_clk
*103 clknet_1_0_0_clk
*104 clknet_1_1_0_clk
*105 clknet_2_0_0_clk
*106 clknet_2_1_0_clk
*107 clknet_2_2_0_clk
*108 clknet_2_3_0_clk

*D_NET *0 0.00783097272162
*CONN
*P clk I
*I clkbuf_0_clk:A I
*CAP
0 clkbuf_0_clk:A 4.017137184e-05
1 *0:1 0.00336379089056
2 *0:3 0.0007909941392
3 *0:5 0.0013214599072599999
4 *0:7 0.00231455641276
5 *0:2 0
6 *0:4 0
*RES
0 clkbuf_0_clk:A *0:1 0.30357142857142855
1 *0:1 *0:2 35.32142857142857
2 *0:3 *0:4 8.214285714285714
3 *0:5 *0:6 15.026785714285712
4 *0:7 *0:8 26.41071428571428
5 clkbuf_0_clk:A clkbuf_0_clk:A 0
6 *0:2 *0:7 0
7 *0:3 *0:8 0
8 *0:4 *0:5 0
*END

*D_NET *1 0.00119001652222
*CONN
*P clock_out O
*I output1:X O
*CAP
7 *1:1 0.00063291299678
8 *1:3 0.00055710352544
9 output1:X 0
*RES
9 *1:1 *1:2 7.133928571428571
10 *1:3 output1:X 5.75
11 *1:3 *1:2 0
12 output1:X output1:X 0
*END

*D_NET *2 0.00224958578944
*CONN
*I _142_:D I
*I _128_:X O
*CAP
10 *2:1 0.00043429369568000003
11 *2:3 0.0004791399875199999
12 *2:4 0.0009870925868799999
13 _142_:D 0.00034905951936000003
14 *2:6 0
15 _128_:X 0
*RES
13 *2:1 *2:2 4.857142857142857
14 *2:3 _128_:X 4.928571428571428
15 *2:4 *2:5 0.30357142857142855
16 _142_:D *2:5 3.558035714285714
17 *2:4 *2:6 9.857142857142856
18 *2:6 *2:1 0
19 *2:3 *2:2 0
20 _128_:X _128_:X 0
21 _142_:D _142_:D 0
*END

*D_NET *3 0.00065870185944
*CONN
*I _143_:D I
*I _125_:Y O
*CAP
16 *3:1 5.034052896000001e-05
17 *3:2 0.00059318913656
18 _143_:D 1.5172193919999998e-05
19 _125_:Y 0
*RES
22 *3:1 _125_:Y 0.4107142857142857
23 *3:2 *3:3 6.678571428571428
24 _143_:D _143_:D 0.040178571428571425
25 _125_:Y _125_:Y 0
26 *3:1 *3:2 0
27 _143_:D *3:3 0
28 _143_:D _143_:D 0
*END

*D_NET *4 0.0004955653349600001
*CONN
*I _144_:D I
*I _124_:X O
*CAP
20 _124_:X 5.034052896000001e-05
21 *4:1 0.00016946796088000002
22 _144_:D 0.00027575684512
23 *4:3 0
*RES
29 _124_:X _124_:X 0.4107142857142857
30 *4:1 *4:2 1.8214285714285714
31 _144_:D *4:3 2.7857142857142856
32 _124_:X _124_:X 0
33 _124_:X *4:1 0
34 *4:3 *4:2 0
35 _144_:D _144_:D 0
*END

*D_NET *5 0.00090212330364
*CONN
*I _145_:D I
*I _121_:Y O
*CAP
24 *5:1 9.313573184e-05
25 *5:2 0.0004078111222
26 _121_:Y 0.00040117644959999997
27 _145_:D 0
28 *5:4 0
*RES
36 *5:1 _145_:D 0.8616071428571428
37 *5:2 *5:3 4.553571428571428
38 _121_:Y *5:4 4.107142857142857
39 _145_:D _145_:D 0
40 *5:1 *5:2 0
41 *5:4 *5:3 0
42 _121_:Y _121_:Y 0
*END

*D_NET *6 0.00049649430648
*CONN
*I _146_:D I
*I _119_:X O
*CAP
29 *6:1 0.0003270263456
30 *6:2 0.00016946796088000002
31 _146_:D 0
32 _119_:X 0
*RES
43 *6:1 _146_:D 3.3258928571428568
44 *6:2 *6:3 1.8214285714285714
45 _146_:D _146_:D 0
46 *6:1 *6:2 0
47 _119_:X _119_:X 0
48 _119_:X *6:3 0
*END

*D_NET *7 0.00028760208367999997
*CONN
*I _147_:D I
*I _118_:X O
*CAP
33 *7:1 0.00011650281392
34 _147_:D 0.00017109926975999998
35 _118_:X 0
36 *7:3 0
*RES
49 *7:1 *7:2 1.2142857142857142
50 _147_:D *7:3 1.6830357142857142
51 _118_:X _118_:X 0
52 _118_:X *7:1 0
53 *7:3 *7:2 0
54 _147_:D _147_:D 0
*END

*D_NET *8 0.00060836133048
*CONN
*I _148_:D I
*I _117_:X O
*CAP
37 *8:1 0.00059318913656
38 _148_:D 1.5172193919999998e-05
39 _117_:X 0
*RES
55 *8:1 *8:2 6.678571428571428
56 _148_:D _148_:D 0.040178571428571425
57 _117_:X _117_:X 0
58 _117_:X *8:1 0
59 _148_:D *8:2 0
60 _148_:D _148_:D 0
*END

*D_NET *9 0.0002503159612
*CONN
*I _149_:D I
*I _115_:Y O
*CAP
40 *9:1 0.00016946796088000002
41 *9:3 8.084800032e-05
42 _115_:Y 0
43 _149_:D 0
*RES
61 *9:1 *9:2 1.8214285714285714
62 *9:3 _149_:D 0.732142857142857
63 _115_:Y _115_:Y 0
64 _115_:Y *9:1 0
65 *9:3 *9:2 0
66 _149_:D _149_:D 0
*END

*D_NET *10 0.00060836133048
*CONN
*I _150_:D I
*I _113_:X O
*CAP
44 _150_:D 1.5172193919999998e-05
45 *10:1 0.00059318913656
46 _113_:X 0
*RES
67 _150_:D _150_:D 0.040178571428571425
68 *10:1 *10:2 6.678571428571428
69 _150_:D _150_:D 0
70 _150_:D *10:1 0
71 _113_:X _113_:X 0
72 _113_:X *10:2 0
*END

*D_NET *11 0.00048420657496
*CONN
*I _151_:D I
*I _112_:X O
*CAP
47 *11:1 0.00016946796088000002
48 *11:3 0.00031473861408
49 _112_:X 0
50 _151_:D 0
*RES
73 *11:1 *11:2 1.8214285714285714
74 *11:3 _151_:D 3.196428571428571
75 _112_:X _112_:X 0
76 _112_:X *11:1 0
77 *11:3 *11:2 0
78 _151_:D _151_:D 0
*END

*D_NET *12 0.00026146325724
*CONN
*I _152_:D I
*I _110_:Y O
*CAP
51 _152_:D 1.5172193919999998e-05
52 *12:1 0.00019595053436
53 _110_:Y 5.034052896000001e-05
54 *12:3 0
*RES
79 _152_:D _152_:D 0.040178571428571425
80 *12:1 *12:2 2.1249999999999996
81 _110_:Y *12:3 0.4107142857142857
82 _152_:D _152_:D 0
83 _152_:D *12:2 0
84 *12:3 *12:1 0
85 _110_:Y _110_:Y 0
*END

*D_NET *13 0.00065538974736
*CONN
*I _153_:D I
*I _109_:X O
*CAP
55 *13:1 0.00032836340175999997
56 _153_:D 0.0003270263456
57 _109_:X 0
58 *13:3 0
*RES
86 *13:1 *13:2 3.642857142857143
87 _153_:D *13:3 3.3258928571428568
88 _109_:X _109_:X 0
89 _109_:X *13:1 0
90 *13:3 *13:2 0
91 _153_:D _153_:D 0
*END

*D_NET *14 0.00033908619596000007
*CONN
*I _154_:D I
*I _106_:Y O
*CAP
59 *14:1 3.720536768e-05
60 *14:2 0.00030188082828000006
61 _154_:D 0
62 _106_:Y 0
*RES
92 *14:1 _154_:D 0.27232142857142855
93 *14:2 *14:3 3.339285714285714
94 _154_:D _154_:D 0
95 *14:1 *14:2 0
96 _106_:Y _106_:Y 0
97 _106_:Y *14:3 0
*END

*D_NET *15 0.00023498068376000004
*CONN
*I _155_:D I
*I _105_:X O
*CAP
63 *15:1 5.034052896000001e-05
64 *15:2 0.00016946796088000002
65 _155_:D 1.5172193919999998e-05
66 _105_:X 0
*RES
98 *15:1 _105_:X 0.4107142857142857
99 *15:2 *15:3 1.8214285714285714
100 _155_:D _155_:D 0.040178571428571425
101 _105_:X _105_:X 0
102 *15:1 *15:2 0
103 _155_:D *15:3 0
104 _155_:D _155_:D 0
*END

*D_NET *16 0.0007168440351999999
*CONN
*I _156_:D I
*I _103_:Y O
*CAP
67 _156_:D 0.0007168440351999999
68 _103_:Y 0
*RES
105 _156_:D _103_:Y 7.433035714285713
106 _103_:Y _103_:Y 0
107 _156_:D _156_:D 0
*END

*D_NET *17 0.0003100777504
*CONN
*I _157_:D I
*I _101_:X O
*CAP
69 _157_:D 0.0003100777504
70 _101_:X 0
*RES
108 _157_:D _101_:X 3.1473214285714284
109 _157_:D _157_:D 0
110 _101_:X _101_:X 0
*END

*D_NET *18 0.00036556876944
*CONN
*I _158_:D I
*I _130_:LO O
*CAP
71 *18:1 0.00032836340175999997
72 *18:3 3.720536768e-05
73 _130_:LO 0
74 _158_:D 0
*RES
111 *18:1 *18:2 3.642857142857143
112 *18:3 _158_:D 0.27232142857142855
113 _130_:LO _130_:LO 0
114 _130_:LO *18:1 0
115 *18:3 *18:2 0
116 _158_:D _158_:D 0
*END

*D_NET *19 0.00067106877184
*CONN
*I _159_:D I
*I _131_:LO O
*CAP
75 *19:1 0.00043429369568000003
76 *19:3 0.00023677507616000001
77 _131_:LO 0
78 _159_:D 0
*RES
117 *19:1 *19:2 4.857142857142857
118 *19:3 _159_:D 2.375
119 _131_:LO _131_:LO 0
120 _131_:LO *19:1 0
121 *19:3 *19:2 0
122 _159_:D _159_:D 0
*END

*D_NET *20 0.00030065649016000005
*CONN
*I _160_:D I
*I _132_:LO O
*CAP
79 _132_:LO 5.034052896000001e-05
80 *20:2 0.00016946796088000002
81 *20:4 8.084800032e-05
82 _160_:D 0
83 *20:1 0
*RES
123 _132_:LO *20:1 0.4107142857142857
124 *20:2 *20:3 1.8214285714285714
125 *20:4 _160_:D 0.732142857142857
126 _160_:D _160_:D 0
127 _132_:LO _132_:LO 0
128 *20:1 *20:2 0
129 *20:4 *20:3 0
*END

*D_NET *21 0.00046887129752
*CONN
*I _161_:D I
*I _133_:LO O
*CAP
84 _161_:D 1.5172193919999998e-05
85 *21:1 0.00016946796088000002
86 *21:3 0.00028423114272
87 _133_:LO 0
*RES
130 _161_:D _161_:D 0.040178571428571425
131 *21:1 *21:2 1.8214285714285714
132 *21:3 _133_:LO 2.875
133 _161_:D _161_:D 0
134 _161_:D *21:1 0
135 *21:3 *21:2 0
136 _133_:LO _133_:LO 0
*END

*D_NET *22 0.00093368730784
*CONN
*I _162_:D I
*I _134_:LO O
*CAP
88 *22:1 0.0005049865952
89 *22:2 0.00022243310784000002
90 _134_:LO 0.0002062676048
91 _162_:D 0
92 *22:4 0
*RES
137 *22:1 _162_:D 5.200892857142857
138 *22:2 *22:3 2.4285714285714284
139 _134_:LO *22:4 2.0535714285714284
140 _162_:D _162_:D 0
141 *22:1 *22:2 0
142 *22:4 *22:3 0
143 _134_:LO _134_:LO 0
*END

*D_NET *23 0.00029599562648000005
*CONN
*I _163_:D I
*I _135_:LO O
*CAP
93 _135_:LO 5.034052896000001e-05
94 *23:2 0.00016946796088000002
95 *23:4 7.618713664000001e-05
96 *23:1 0
97 _163_:D 0
*RES
144 _135_:LO *23:1 0.4107142857142857
145 *23:2 *23:3 1.8214285714285714
146 *23:4 _163_:D 0.6830357142857142
147 _135_:LO _135_:LO 0
148 *23:1 *23:2 0
149 *23:4 *23:3 0
150 _163_:D _163_:D 0
*END

*D_NET *24 0.00037862002808
*CONN
*I _164_:D I
*I _136_:LO O
*CAP
98 *24:1 8.084800032e-05
99 *24:2 0.00016946796088000002
100 _136_:LO 0.00012830406688
101 _164_:D 0
102 *24:4 0
*RES
151 *24:1 _164_:D 0.732142857142857
152 *24:2 *24:3 1.8214285714285714
153 _136_:LO *24:4 1.232142857142857
154 _164_:D _164_:D 0
155 *24:1 *24:2 0
156 *24:4 *24:3 0
157 _136_:LO _136_:LO 0
*END

*D_NET *25 0.0002503159612
*CONN
*I _165_:D I
*I _137_:LO O
*CAP
103 *25:1 0.00016946796088000002
104 *25:3 8.084800032e-05
105 _137_:LO 0
106 _165_:D 0
*RES
158 *25:1 *25:2 1.8214285714285714
159 *25:3 _165_:D 0.732142857142857
160 _137_:LO _137_:LO 0
161 _137_:LO *25:1 0
162 *25:3 *25:2 0
163 _165_:D _165_:D 0
*END

*D_NET *26 0.00075707895768
*CONN
*I _166_:D I
*I _138_:LO O
*CAP
107 *26:1 0.00016946796088000002
108 *26:3 0.0005876109968
109 _166_:D 0
110 _138_:LO 0
*RES
164 *26:1 *26:2 1.8214285714285714
165 *26:3 _166_:D 6.07142857142857
166 _166_:D _166_:D 0
167 _138_:LO _138_:LO 0
168 _138_:LO *26:1 0
169 *26:3 *26:2 0
*END

*D_NET *27 0.00026260369272
*CONN
*I _167_:D I
*I _139_:LO O
*CAP
111 *27:1 0.00016946796088000002
112 _167_:D 9.313573184e-05
113 _139_:LO 0
114 *27:3 0
*RES
170 *27:1 *27:2 1.8214285714285714
171 _167_:D *27:3 0.8616071428571428
172 _139_:LO _139_:LO 0
173 _139_:LO *27:1 0
174 *27:3 *27:2 0
175 _167_:D _167_:D 0
*END

*D_NET *28 0.0008863119960799999
*CONN
*I _168_:D I
*I _140_:LO O
*CAP
115 *28:1 0.00016946796088000002
116 *28:3 0.0007168440351999999
117 _140_:LO 0
118 _168_:D 0
*RES
176 *28:1 *28:2 1.8214285714285714
177 *28:3 _168_:D 7.433035714285713
178 _140_:LO _140_:LO 0
179 _140_:LO *28:1 0
180 *28:3 *28:2 0
181 _168_:D _168_:D 0
*END

*D_NET *29 0.00035192599064000005
*CONN
*I _169_:D I
*I _141_:LO O
*CAP
119 _141_:LO 0.00016728583584
120 *29:2 0.00016946796088000002
121 _169_:D 1.5172193919999998e-05
122 *29:1 0
*RES
182 _141_:LO *29:1 1.6428571428571428
183 *29:2 *29:3 1.8214285714285714
184 _169_:D _169_:D 0.040178571428571425
185 _141_:LO _141_:LO 0
186 *29:1 *29:2 0
187 _169_:D *29:3 0
188 _169_:D _169_:D 0
*END

*D_NET *30 0.0006693762732
*CONN
*I _170_:D I
*I _129_:LO O
*CAP
123 *30:1 7.618713664000001e-05
124 *30:2 0.00059318913656
125 _170_:D 0
126 _129_:LO 0
*RES
189 *30:1 _170_:D 0.6830357142857142
190 *30:2 *30:3 6.678571428571428
191 _170_:D _170_:D 0
192 *30:1 *30:2 0
193 _129_:LO _129_:LO 0
194 _129_:LO *30:3 0
*END

*D_NET *31 0.00503489926756
*CONN
*I _125_:B I
*I _121_:C I
*I _115_:C I
*I _110_:C1 I
*I _103_:B1 I
*I _102_:X O
*CAP
127 *31:1 0.00032321291168
128 *31:2 0.00061967171004
129 _103_:B1 5.034052896000001e-05
130 *31:5 0.00086895767712
131 *31:6 9.002024044000002e-05
132 *31:8 0.0004791399875199999
133 *31:10 0.00016728583584
134 *31:11 0.0002753982548
135 _102_:X 0.0004791399875199999
136 _121_:C 4.017137184e-05
137 *31:15 0.00055710352544
138 *31:16 0.00014298538739999998
139 *31:17 0.00083153229788
140 *31:19 0.00010993955108000003
141 _110_:C1 0
142 *31:4 0
143 *31:9 0
144 _115_:C 0
145 *31:13 0
146 _125_:B 0
*RES
195 *31:1 _110_:C1 3.2857142857142856
196 *31:2 *31:3 6.982142857142857
197 _103_:B1 *31:4 0.4107142857142857
198 *31:5 _102_:X 9.035714285714285
199 *31:6 *31:7 0.9107142857142857
200 *31:8 *31:9 4.928571428571428
201 *31:10 _115_:C 1.6428571428571428
202 *31:11 *31:12 3.035714285714285
203 _102_:X *31:13 4.928571428571428
204 _121_:C *31:14 0.30357142857142855
205 *31:15 *31:14 5.75
206 *31:16 *31:11 1.5178571428571426
207 *31:17 *31:18 9.410714285714285
208 *31:19 *31:18 0.4107142857142857
209 *31:19 *31:16 0.6071428571428571
210 _110_:C1 _110_:C1 0
211 *31:1 *31:3 0
212 *31:4 *31:2 0
213 _103_:B1 _103_:B1 0
214 _102_:X _102_:X 0
215 *31:5 *31:7 0
216 *31:9 *31:6 0
217 *31:8 *31:20 0
218 _115_:C _115_:C 0
219 *31:10 *31:12 0
220 *31:13 *31:11 0
221 _121_:C _121_:C 0
222 *31:15 *31:16 0
223 _125_:B _125_:B 0
224 _125_:B *31:17 0
*END

*D_NET *32 0.00103755449044
*CONN
*I _106_:C1 I
*I _105_:A2 I
*I _104_:Y O
*CAP
147 *32:1 5.034052896000001e-05
148 *32:2 0.00077856715092
149 *32:4 8.932229792e-05
150 _105_:A2 6.898398368e-05
151 *32:5 5.034052896000001e-05
152 _104_:Y 0
153 _106_:C1 0
154 *32:6 0
*RES
225 *32:1 _104_:Y 0.4107142857142857
226 *32:2 *32:3 8.803571428571427
227 *32:4 _106_:C1 0.8214285714285714
228 _105_:A2 *32:5 0.6071428571428571
229 *32:5 *32:6 0.4107142857142857
230 _104_:Y _104_:Y 0
231 *32:1 *32:2 0
232 *32:4 *32:3 0
233 _106_:C1 _106_:C1 0
234 _105_:A2 _105_:A2 0
235 *32:6 *32:7 0
*END

*D_NET *33 0.00306106576462
*CONN
*I _110_:B1 I
*I _109_:A2 I
*I _107_:Y O
*CAP
155 *33:1 0.00086895767712
156 *33:2 0.00022243310784000002
157 *33:4 0.00067404883232
158 *33:6 6.898398368e-05
159 _110_:B1 0.0002854207456
160 *33:7 4.017137184e-05
161 *33:8 8.932229792e-05
162 *33:9 0.00076532586418
163 *33:11 4.640188412000001e-05
164 _107_:Y 0
165 *33:5 0
166 _109_:A2 0
*RES
236 *33:1 _107_:Y 9.035714285714285
237 *33:2 *33:3 2.4285714285714284
238 *33:4 *33:5 6.982142857142857
239 *33:6 *33:4 0.6071428571428571
240 _110_:B1 *33:6 2.464285714285714
241 _110_:B1 _110_:B1 0.30357142857142855
242 *33:7 _109_:A2 0.30357142857142855
243 *33:8 *33:7 0.8214285714285714
244 *33:9 *33:10 8.651785714285714
245 *33:11 *33:10 0.4107142857142857
246 _107_:Y _107_:Y 0
247 *33:1 *33:2 0
248 *33:5 *33:3 0
249 _110_:B1 _110_:B1 0
250 _109_:A2 _109_:A2 0
251 *33:8 *33:9 0
*END

*D_NET *34 0.005691174762800001
*CONN
*I _119_:C1 I
*I _118_:C1 I
*I _113_:C1 I
*I _112_:C1 I
*I _109_:C1 I
*I _108_:X O
*CAP
167 *34:1 5.034052896000001e-05
168 *34:2 0.0006925561676400001
169 *34:4 0.00117630884184
170 *34:6 5.034052896000001e-05
171 _109_:C1 0.00028423114272
172 *34:7 4.017137184e-05
173 *34:8 8.932229792e-05
174 *34:10 4.017137184e-05
175 *34:11 0.00059318913656
176 *34:13 6.898398368e-05
177 _108_:X 0.00079218374208
178 *34:14 0.0006752384351999999
179 *34:16 0.00024524937376
180 *34:17 0.0007256020039600001
181 *34:5 0.00016728583584
182 _112_:C1 0
183 _119_:C1 0
184 _118_:C1 0
185 _113_:C1 0
186 *34:19 0
*RES
252 *34:1 _108_:X 0.4107142857142857
253 *34:2 *34:3 7.285714285714286
254 *34:4 *34:5 11.5
255 *34:4 *34:6 48.79999999999999
256 *34:6 _112_:C1 0.4107142857142857
257 _109_:C1 *34:7 2.875
258 *34:7 *34:8 0.30357142857142855
259 *34:8 *34:9 0.8214285714285714
260 *34:10 *34:9 0.30357142857142855
261 *34:11 *34:12 6.678571428571428
262 *34:2 *34:12 0.4107142857142857
263 *34:13 _119_:C1 0.6071428571428571
264 _108_:X *34:13 7.803571428571428
265 _108_:X _108_:X 0.30357142857142855
266 *34:14 _118_:C1 6.571428571428571
267 *34:14 *34:15 0.30357142857142855
268 *34:16 *34:15 2.464285714285714
269 *34:17 *34:18 8.196428571428571
270 *34:5 *34:19 1.6428571428571428
271 _108_:X _108_:X 0
272 *34:1 *34:2 0
273 *34:5 *34:3 0
274 *34:4 *34:4 0
275 *34:6 *34:6 0
276 _112_:C1 _112_:C1 0
277 _109_:C1 _109_:C1 0
278 *34:10 *34:11 0
279 _119_:C1 _119_:C1 0
280 _118_:C1 _118_:C1 0
281 *34:16 *34:20 0
282 _113_:C1 _113_:C1 0
283 _113_:C1 *34:18 0
284 *34:19 *34:17 0
*END

*D_NET *35 0.00100805438452
*CONN
*I _112_:A2 I
*I _111_:Y O
*CAP
187 _112_:A2 4.017137184e-05
188 *35:1 0.00040117644959999997
189 *35:3 0.00056670656308
190 *35:2 0
191 _111_:Y 0
*RES
285 _112_:A2 *35:1 0.30357142857142855
286 *35:1 *35:2 4.107142857142857
287 *35:3 *35:4 6.374999999999999
288 _112_:A2 _112_:A2 0
289 *35:2 *35:3 0
290 _111_:Y _111_:Y 0
291 _111_:Y *35:4 0
*END

*D_NET *36 0.0012981730899200002
*CONN
*I _115_:B I
*I _114_:Y O
*CAP
192 *36:1 0.0008580148713600001
193 *36:3 0.00044015821855999997
194 _115_:B 0
195 _114_:Y 0
*RES
292 *36:1 *36:2 9.714285714285714
293 *36:3 _114_:Y 4.517857142857142
294 _115_:B _115_:B 0
295 _115_:B *36:1 0
296 *36:3 *36:2 0
297 _114_:Y _114_:Y 0
*END

*D_NET *37 0.0009333537912800001
*CONN
*I _117_:A1 I
*I _116_:Y O
*CAP
196 *37:1 0.0008050497244000001
197 *37:3 0.00012830406688
198 _117_:A1 0
199 _116_:Y 0
*RES
298 *37:1 *37:2 9.107142857142856
299 *37:3 _116_:Y 1.232142857142857
300 _117_:A1 _117_:A1 0
301 _117_:A1 *37:1 0
302 *37:3 *37:2 0
303 _116_:Y _116_:Y 0
*END

*D_NET *38 0.0007950041937999999
*CONN
*I _121_:B I
*I _120_:Y O
*CAP
200 *38:1 0.00035484597524
201 _120_:Y 0.00044015821855999997
202 _121_:B 0
203 *38:3 0
*RES
304 *38:1 *38:2 3.946428571428571
305 _120_:Y *38:3 4.517857142857142
306 _121_:B _121_:B 0
307 _121_:B *38:2 0
308 *38:3 *38:1 0
309 _120_:Y _120_:Y 0
*END

*D_NET *39 0.00113240801264
*CONN
*I _124_:A1 I
*I _122_:Y O
*CAP
204 _124_:A1 6.898398368e-05
205 *39:2 0.0009469212150399999
206 *39:3 0.00011650281392
207 _122_:Y 0
*RES
310 _124_:A1 *39:1 0.6071428571428571
311 *39:2 *39:1 9.857142857142856
312 *39:3 *39:4 1.2142857142857142
313 _124_:A1 _124_:A1 0
314 *39:2 *39:3 0
315 _122_:Y _122_:Y 0
316 _122_:Y *39:4 0
*END

*D_NET *40 0.0003492529922
*CONN
*I _124_:A2 I
*I _123_:Y O
*CAP
208 *40:1 0.00014298538739999998
209 *40:3 0.0002062676048
210 _124_:A2 0
211 _123_:Y 0
*RES
317 *40:1 *40:2 1.5178571428571426
318 *40:3 _123_:Y 2.0535714285714284
319 _124_:A2 _124_:A2 0
320 _124_:A2 *40:1 0
321 *40:3 *40:2 0
322 _123_:Y _123_:Y 0
*END

*D_NET *41 0.00196679989232
*CONN
*I _128_:A3 I
*I _126_:Y O
*CAP
212 *41:1 0.0011758057531200002
213 *41:3 0.0007909941392
214 _128_:A3 0
215 _126_:Y 0
*RES
323 *41:1 *41:2 13.357142857142856
324 *41:3 _126_:Y 8.214285714285714
325 _128_:A3 _128_:A3 0
326 _128_:A3 *41:1 0
327 *41:3 *41:2 0
328 _126_:Y _126_:Y 0
*END

*D_NET *42 0.0016231521724000002
*CONN
*I _128_:C1 I
*I _127_:Y O
*CAP
216 *42:1 0.00016946796088000002
217 _127_:Y 0.00145368421152
218 *42:3 0
219 _128_:C1 0
*RES
329 *42:1 *42:2 1.8214285714285714
330 _127_:Y *42:3 15.19642857142857
331 *42:3 *42:2 0
332 _128_:C1 _128_:C1 0
333 _128_:C1 *42:1 0
334 _127_:Y _127_:Y 0
*END

*D_NET *43 0.00171340460464
*CONN
*I _103_:A1 I
*I _092_:C I
*I _089_:A I
*I _071_:Y O
*CAP
220 *43:1 4.017137184e-05
221 *43:2 0.00038549899903999994
222 _103_:A1 4.017137184e-05
223 *43:4 0.0004078111222
224 *43:5 0.00014298538739999998
225 _089_:A 8.932229792e-05
226 *43:8 0.00032321291168
227 *43:7 0.00028423114272
228 _092_:C 0
229 _071_:Y 0
*RES
335 *43:1 *43:2 0.30357142857142855
336 *43:2 _092_:C 3.9419642857142856
337 _103_:A1 *43:3 0.30357142857142855
338 *43:4 *43:5 4.553571428571428
339 *43:5 *43:6 1.5178571428571426
340 _089_:A *43:7 0.8214285714285714
341 *43:8 *43:3 3.2857142857142856
342 *43:7 *43:1 2.875
343 _092_:C _092_:C 0
344 _103_:A1 _103_:A1 0
345 *43:8 *43:5 0
346 _071_:Y _071_:Y 0
347 _071_:Y *43:4 0
348 *43:7 *43:6 0
349 _089_:A _089_:A 0
*END

*D_NET *44 0.0019071055480600002
*CONN
*I _092_:A I
*I _088_:A I
*I _072_:Y O
*CAP
230 *44:1 0.00059318913656
231 *44:3 0.00032321291168
232 *44:4 0.00032440251456
233 *44:7 2.3813806740000006e-05
234 *44:9 4.640188412000001e-05
235 _088_:A 0.0005960852944
236 _092_:A 0
237 _072_:Y 0
238 *44:6 0
*RES
350 *44:1 *44:2 6.678571428571428
351 *44:3 _072_:Y 3.2857142857142856
352 *44:4 *44:5 0.30357142857142855
353 *44:4 *44:6 2.875
354 *44:7 *44:8 0.15178571428571427
355 *44:9 *44:8 0.4107142857142857
356 _088_:A *44:5 6.160714285714286
357 _092_:A _092_:A 0
358 _092_:A *44:2 0
359 *44:3 *44:1 0
360 _072_:Y _072_:Y 0
361 *44:6 *44:7 0
362 _088_:A _088_:A 0
*END

*D_NET *45 0.0017739513868399999
*CONN
*I _106_:A1 I
*I _092_:B I
*I _087_:A I
*I _073_:Y O
*CAP
239 *45:1 0.00059318913656
240 *45:3 0.00024524937376
241 _092_:B 0.0002062676048
242 *45:2 0.00024891568132000004
243 *45:6 0.0004803295904
244 _106_:A1 0
245 _073_:Y 0
246 *45:4 0
247 _087_:A 0
248 *45:7 0
*RES
363 *45:1 *45:2 6.678571428571428
364 *45:3 _073_:Y 2.464285714285714
365 _092_:B *45:4 2.0535714285714284
366 *45:2 *45:5 2.7321428571428568
367 *45:6 _087_:A 0.30357142857142855
368 *45:6 *45:7 4.517857142857142
369 _106_:A1 _106_:A1 0
370 _106_:A1 *45:2 0
371 *45:3 *45:1 0
372 _073_:Y _073_:Y 0
373 _092_:B _092_:B 0
374 *45:4 *45:5 0
375 _087_:A _087_:A 0
376 *45:7 *45:8 0
*END

*D_NET *46 0.00206192454324
*CONN
*I _092_:D I
*I _086_:A I
*I _074_:Y O
*CAP
249 *46:1 0.0004791399875199999
250 *46:2 0.00014298538739999998
251 _092_:D 0.00055710352544
252 *46:5 0.00040117644959999997
253 *46:6 4.017137184e-05
254 *46:7 0.00040117644959999997
255 *46:4 4.017137184e-05
256 _086_:A 0
257 _074_:Y 0
*RES
377 *46:1 _086_:A 4.928571428571428
378 *46:2 *46:3 1.5178571428571426
379 _092_:D *46:4 5.75
380 *46:5 _074_:Y 4.107142857142857
381 *46:6 *46:5 0.30357142857142855
382 *46:7 *46:6 4.107142857142857
383 *46:4 *46:7 0.30357142857142855
384 _086_:A _086_:A 0
385 *46:1 *46:2 0
386 *46:4 *46:3 0
387 _092_:D _092_:D 0
388 _074_:Y _074_:Y 0
*END

*D_NET *47 0.0019033958892
*CONN
*I _128_:A1 I
*I _110_:A1 I
*I _094_:B1 I
*I _085_:A I
*I _075_:Y O
*CAP
258 _075_:Y 0.00032321291168
259 *47:1 0.0006726368570000002
260 _085_:A 4.017137184e-05
261 *47:4 0.00028423114272
262 *47:5 0.00014298538739999998
263 _110_:A1 0.00044015821855999997
264 _094_:B1 0
265 *47:6 0
266 _128_:A1 0
*RES
389 _075_:Y _094_:B1 3.2857142857142856
390 *47:1 *47:2 7.5892857142857135
391 _085_:A *47:3 0.30357142857142855
392 *47:4 *47:3 2.875
393 *47:5 *47:1 1.5178571428571426
394 _110_:A1 _128_:A1 4.517857142857142
395 _094_:B1 _094_:B1 0
396 _075_:Y _075_:Y 0
397 _110_:A1 _110_:A1 0
398 _110_:A1 *47:1 0
399 *47:6 *47:2 0
400 _085_:A _085_:A 0
401 *47:4 *47:5 0
402 _128_:A1 _128_:A1 0
*END

*D_NET *48 0.0007570641144
*CONN
*I _094_:C1 I
*I _084_:A I
*I _076_:Y O
*CAP
267 *48:1 0.00038132854871999994
268 *48:3 0.0002062676048
269 *48:2 0.00016946796088000002
270 _094_:C1 0
271 _084_:A 0
272 _076_:Y 0
*RES
403 *48:1 *48:2 4.249999999999999
404 *48:3 _084_:A 2.0535714285714284
405 *48:2 *48:4 1.8214285714285714
406 _094_:C1 _094_:C1 0
407 _094_:C1 *48:2 0
408 *48:3 *48:1 0
409 _084_:A _084_:A 0
410 _076_:Y _076_:Y 0
411 _076_:Y *48:4 0
*END

*D_NET *49 0.0012309883926000002
*CONN
*I _121_:A I
*I _119_:A2 I
*I _078_:B I
*I _077_:X O
*CAP
273 _121_:A 0.00028423114272
274 *49:2 0.0002753982548
275 _119_:A2 6.898398368e-05
276 _077_:X 8.932229792e-05
277 *49:6 0.00012974410066
278 *49:7 4.640188412000001e-05
279 *49:8 5.029638022e-05
280 _078_:B 4.017137184e-05
281 *49:10 0.00024643897664
282 *49:1 0
283 *49:4 0
284 *49:5 0
*RES
412 _121_:A *49:1 2.875
413 *49:2 *49:3 3.035714285714285
414 _119_:A2 *49:4 0.6071428571428571
415 _077_:X *49:5 0.8214285714285714
416 *49:6 *49:7 1.3660714285714284
417 *49:7 *49:8 0.4107142857142857
418 *49:8 *49:2 0.45535714285714285
419 _078_:B *49:9 0.30357142857142855
420 *49:10 *49:9 2.0535714285714284
421 *49:10 *49:5 0.30357142857142855
422 _121_:A _121_:A 0
423 *49:1 *49:2 0
424 *49:4 *49:3 0
425 _119_:A2 _119_:A2 0
426 _077_:X _077_:X 0
427 *49:5 *49:6 0
428 _078_:B _078_:B 0
*END

*D_NET *50 0.00079609505076
*CONN
*I _119_:B1 I
*I _079_:A I
*I _078_:Y O
*CAP
285 *50:1 0.00016847543872000001
286 *50:3 0.00035484597524
287 *50:5 5.034052896000001e-05
288 *50:4 0.00022243310784000002
289 _119_:B1 0
290 *50:2 0
291 _078_:Y 0
292 _079_:A 0
*RES
429 *50:1 _119_:B1 0.30357142857142855
430 *50:1 *50:2 1.232142857142857
431 *50:3 *50:4 3.946428571428571
432 *50:5 _079_:A 0.4107142857142857
433 *50:4 *50:6 2.4285714285714284
434 _119_:B1 _119_:B1 0
435 *50:2 *50:4 0
436 _078_:Y _078_:Y 0
437 _078_:Y *50:3 0
438 _079_:A _079_:A 0
439 *50:5 *50:6 0
*END

*D_NET *51 0.0009753405013199999
*CONN
*I _118_:A2 I
*I _080_:B I
*I _079_:Y O
*CAP
293 *51:1 0.00079218374208
294 *51:2 4.017137184e-05
295 *51:3 0.00014298538739999998
296 _118_:A2 0
297 _080_:B 0
298 _079_:Y 0
299 *51:5 0
*RES
440 *51:1 _118_:A2 0.30357142857142855
441 *51:1 *51:2 7.803571428571428
442 *51:2 _080_:B 0.30357142857142855
443 *51:3 *51:4 1.5178571428571426
444 _118_:A2 _118_:A2 0
445 _080_:B _080_:B 0
446 _079_:Y _079_:Y 0
447 _079_:Y *51:3 0
448 *51:5 *51:4 0
*END

*D_NET *52 0.00179519641976
*CONN
*I _118_:B1 I
*I _117_:A2 I
*I _081_:A I
*I _080_:Y O
*CAP
300 *52:1 0.00016946796088000002
301 *52:3 0.00036338428352000003
302 *52:4 0.00050914220224
303 _117_:A2 0.00071303060128
304 _081_:A 4.017137184e-05
305 _080_:Y 0
306 _118_:B1 0
*RES
449 *52:1 *52:2 1.8214285714285714
450 *52:3 _080_:Y 3.2857142857142856
451 *52:4 _118_:B1 0.6071428571428571
452 *52:4 *52:5 4.517857142857142
453 *52:3 *52:5 0.30357142857142855
454 _117_:A2 *52:6 7.3928571428571415
455 _081_:A *52:6 0.30357142857142855
456 _081_:A _081_:A 0
457 _081_:A *52:1 0
458 *52:3 *52:2 0
459 _080_:Y _080_:Y 0
460 _118_:B1 _118_:B1 0
461 _117_:A2 _117_:A2 0
*END

*D_NET *53 0.00168102790592
*CONN
*I _117_:B2 I
*I _114_:A2 I
*I _082_:C I
*I _081_:Y O
*CAP
307 *53:1 0.00075320197312
308 _082_:C 5.9238541439999997e-05
309 *53:3 0.00038132854871999994
310 *53:4 0.00048725884264
311 _117_:B2 0
312 _081_:Y 0
313 *53:2 0
314 _114_:A2 0
*RES
462 *53:1 _117_:B2 0.30357142857142855
463 *53:1 _081_:Y 7.3928571428571415
464 _082_:C *53:2 0.5044642857142856
465 *53:3 *53:4 4.249999999999999
466 *53:4 *53:5 5.4642857142857135
467 _117_:B2 _117_:B2 0
468 _081_:Y _081_:Y 0
469 _082_:C _082_:C 0
470 *53:2 *53:4 0
471 _117_:B2 *53:3 0
472 _114_:A2 _114_:A2 0
473 _114_:A2 *53:5 0
*END

*D_NET *54 0.00197212317632
*CONN
*I _115_:A I
*I _113_:A2 I
*I _083_:B I
*I _082_:X O
*CAP
315 *54:1 0.0004791399875199999
316 *54:2 0.00059318913656
317 _115_:A 5.034052896000001e-05
318 *54:5 0.00048725884264
319 _083_:B 0.0003621946806399999
320 _082_:X 0
321 _113_:A2 0
322 *54:4 0
323 *54:6 0
*RES
474 *54:1 _082_:X 4.928571428571428
475 *54:2 *54:3 6.678571428571428
476 _115_:A *54:4 0.4107142857142857
477 *54:5 *54:2 5.4642857142857135
478 _083_:B *54:6 3.6964285714285707
479 _082_:X _082_:X 0
480 *54:1 *54:2 0
481 _113_:A2 _113_:A2 0
482 _113_:A2 *54:3 0
483 _115_:A _115_:A 0
484 *54:4 *54:5 0
485 _083_:B _083_:B 0
486 *54:6 *54:7 0
*END

*D_NET *55 0.00322097563404
*CONN
*I _113_:B1 I
*I _111_:A I
*I _094_:A2 I
*I _084_:B I
*I _083_:Y O
*CAP
324 _111_:A 4.017137184e-05
325 *55:1 0.0005960852944
326 _113_:B1 4.017137184e-05
327 _083_:Y 0.00012949366976
328 *55:3 0.0009374625918000002
329 _094_:A2 0.00071303060128
330 _084_:B 0.0003621946806399999
331 *55:7 0.0004023660524799999
332 *55:8 0
333 *55:5 0
*RES
487 _111_:A *55:1 0.30357142857142855
488 *55:1 *55:2 6.160714285714286
489 _113_:B1 *55:2 0.30357142857142855
490 _083_:Y _083_:Y 0.8214285714285714
491 *55:3 *55:4 10.625
492 _094_:A2 *55:5 7.3928571428571415
493 _084_:B *55:6 3.6964285714285707
494 *55:7 *55:6 0.30357142857142855
495 *55:7 _083_:Y 3.6964285714285707
496 _083_:Y _083_:Y 0.30357142857142855
497 _111_:A _111_:A 0
498 _113_:B1 _113_:B1 0
499 _083_:Y _083_:Y 0
500 _083_:Y *55:3 0
501 *55:8 *55:4 0
502 _094_:A2 _094_:A2 0
503 *55:5 *55:9 0
504 _084_:B _084_:B 0
*END

*D_NET *56 0.00082060178136
*CONN
*I _112_:B1 I
*I _110_:A2 I
*I _085_:B I
*I _084_:X O
*CAP
334 *56:1 0.00014298538739999998
335 _110_:A2 0.0002062676048
336 *56:4 0.0002753982548
337 *56:5 0.00019595053436
338 _084_:X 0
339 _112_:B1 0
340 *56:3 0
341 _085_:B 0
342 *56:7 0
*RES
505 *56:1 *56:2 1.5178571428571426
506 _110_:A2 *56:3 2.0535714285714284
507 *56:4 *56:1 3.035714285714285
508 *56:5 *56:6 2.1249999999999996
509 _084_:X _084_:X 0
510 _084_:X *56:1 0
511 _112_:B1 _112_:B1 0
512 _112_:B1 *56:2 0
513 _110_:A2 _110_:A2 0
514 *56:3 *56:4 0
515 _085_:B _085_:B 0
516 _085_:B *56:5 0
517 *56:7 *56:6 0
*END

*D_NET *57 0.0016916340472799998
*CONN
*I _107_:A I
*I _086_:B I
*I _085_:X O
*CAP
343 *57:1 0.00038132854871999994
344 *57:3 0.00071303060128
345 *57:4 4.017137184e-05
346 _085_:X 0.00055710352544
347 _086_:B 0
348 _107_:A 0
*RES
518 *57:1 *57:2 4.249999999999999
519 *57:3 *57:4 7.3928571428571415
520 *57:4 _107_:A 0.30357142857142855
521 _085_:X *57:3 5.75
522 _086_:B _086_:B 0
523 _086_:B *57:1 0
524 *57:3 *57:2 0
525 _107_:A _107_:A 0
526 _085_:X _085_:X 0
*END

*D_NET *58 0.0016469605493599996
*CONN
*I _109_:B1 I
*I _106_:A2 I
*I _087_:B I
*I _086_:X O
*CAP
349 *58:1 0.0005582931283199999
350 *58:2 0.00032321291168
351 *58:3 0.00019595053436
352 _087_:B 0.00016728583584
353 *58:6 0.00019595053436
354 _086_:X 0.0002062676048
355 _106_:A2 0
356 *58:5 0
357 _109_:B1 0
358 *58:8 0
*RES
527 *58:1 _106_:A2 0.30357142857142855
528 *58:2 *58:1 3.2857142857142856
529 *58:3 *58:4 2.1249999999999996
530 _087_:B *58:5 1.6428571428571428
531 *58:1 _086_:X 5.339285714285714
532 *58:6 *58:7 2.1249999999999996
533 _086_:X *58:8 2.0535714285714284
534 _106_:A2 _106_:A2 0
535 *58:2 *58:4 0
536 *58:5 *58:3 0
537 _087_:B _087_:B 0
538 _086_:X _086_:X 0
539 _109_:B1 _109_:B1 0
540 _109_:B1 *58:6 0
541 *58:8 *58:7 0
*END

*D_NET *59 0.00122568074932
*CONN
*I _104_:A I
*I _088_:B I
*I _087_:X O