*SPEF "IEEE 1481-1998"
*DESIGN "register"
*DATE "Tue Apr 27 23:33:00 2021"
*VENDOR "AUC CSCE Department"
*PROGRAM "SPEF Extractor"
*VERSION "1.0"
*DESIGN_FLOW "PIN_CAP NONE"
*DIVIDER /
*DELIMITER :
*BUS_DELIMITER []
*T_UNIT 1.00000 NS
*C_UNIT 1.00000 PF
*R_UNIT 1.00000 OHM
*L_UNIT 1.00000 HENRY


*NAME_MAP
*0 clk
*1 d
*2 q
*3 wrenable
*4 _0_
*5 net1
*6 net2
*7 net3
*8 net4

*D_NET *0 0.00234071438052
*CONN
*P clk I
*I input1:A I
*CAP
0 *0:1 0.0004791399875199999
1 *0:2 0.0008712561581000002
2 *0:4 0.0009903182348999999
3 input1:A 0
*RES
0 *0:1 input1:A 4.928571428571428
1 *0:2 *0:3 9.866071428571429
2 *0:4 *0:5 1.7656333333333334
3 input1:A input1:A 0
4 *0:1 *0:3 0
5 *0:2 *0:4 0
*END

*D_NET *1 0.0008336583476
*CONN
*P d I
*I input2:A I
*CAP
4 *1:1 0.0003596407917
5 *1:3 0.00047401755590000005
6 *1:4 0
7 input2:A 0
*RES
6 *1:1 *1:2 0.6125666666666667
7 *1:3 *1:4 5.3125
8 *1:4 *1:2 0
9 input2:A input2:A 0
10 input2:A *1:3 0
*END

*D_NET *2 0.0011260363623
*CONN
*P q O
*I output4:X O
*CAP
8 output4:X 0.00044015821855999997
9 *2:2 0.0006858781437400002
10 *2:1 0
*RES
11 output4:X *2:1 4.517857142857142
12 *2:2 *2:3 7.741071428571428
13 output4:X output4:X 0
14 *2:1 *2:2 0
*END

*D_NET *3 0.0012724326077000001
*CONN
*P wrenable I
*I input3:A I
*CAP
11 *3:1 0.0008712561581000002
12 *3:3 0.00040117644959999997
13 input3:A 0
*RES
15 *3:1 *3:2 9.866071428571429
16 *3:3 input3:A 4.107142857142857
17 *3:3 *3:2 0
18 input3:A input3:A 0
*END

*D_NET *4 0.0007790485808000001
*CONN
*I _2_:D I
*I _1_:X O
*CAP
14 _2_:D 0.0007388772089600001
15 _1_:X 4.017137184e-05
*RES
19 _2_:D _1_:X 7.665178571428571
20 _1_:X _1_:X 0.30357142857142855
21 _2_:D _2_:D 0
22 _1_:X _1_:X 0
*END

*D_NET *5 0.00102330182452
*CONN
*I input1:X O
*I _2_:CLK I
*CAP
16 _2_:CLK 5.034052896000001e-05
17 *5:2 0.00014298538739999998
18 *5:4 0.00082997590816
19 *5:1 0
20 input1:X 0
*RES
23 _2_:CLK *5:1 0.4107142857142857
24 *5:2 *5:3 1.5178571428571426
25 *5:4 input1:X 8.625
26 _2_:CLK _2_:CLK 0
27 *5:1 *5:2 0
28 *5:4 *5:3 0
29 input1:X input1:X 0
*END

*D_NET *6 0.0036512953174
*CONN
*I input2:X O
*I _1_:A1 I
*CAP
21 input2:X 0.0013367389046400001
22 *6:2 0.00231455641276
23 _1_:A1 0
24 *6:1 0
*RES
30 input2:X *6:1 13.964285714285714
31 *6:2 *6:3 26.41071428571428
32 _1_:A1 _1_:A1 0
33 _1_:A1 *6:2 0
34 *6:1 *6:3 0
35 input2:X input2:X 0
*END

*D_NET *7 0.0016624776883999999
*CONN
*I input3:X O
*I _1_:S I
*CAP
25 *7:1 0.00044015821855999997
26 *7:2 0.0002753982548
27 input3:X 0.0009469212150399999
28 _1_:S 0
29 *7:4 0
*RES
36 *7:1 _1_:S 4.517857142857142
37 *7:2 *7:3 3.035714285714285
38 input3:X *7:4 9.857142857142856
39 _1_:S _1_:S 0
40 *7:1 *7:2 0
41 *7:4 *7:3 0
42 input3:X input3:X 0
*END

*D_NET *8 0.003843137051240001
*CONN
*I output4:A I
*I _1_:A0 I
*I _2_:Q O
*CAP
30 _2_:Q 0.0013757206736000002
31 *8:2 0.00011650281392
32 *8:4 8.932229792e-05
33 *8:3 0.0022615912658000004
34 _1_:A0 0
35 *8:1 0
36 output4:A 0
*RES
43 _2_:Q *8:1 14.375
44 *8:2 *8:3 1.2142857142857142
45 *8:4 output4:A 0.8214285714285714
46 *8:3 *8:5 25.803571428571423
47 _1_:A0 _1_:A0 0
48 _1_:A0 *8:3 0
49 _2_:Q _2_:Q 0
50 *8:1 *8:2 0
51 *8:4 *8:5 0
52 output4:A output4:A 0
*END

