* NGSPICE file created from clk_divider.ext - technology: sky130A

* Black-box entry subcircuit for sky130_fd_sc_hd__decap_12 abstract view
.subckt sky130_fd_sc_hd__decap_12 VGND VNB VPB VPWR
.ends

* Black-box entry subcircuit for sky130_fd_sc_hd__decap_8 abstract view
.subckt sky130_fd_sc_hd__decap_8 VGND VNB VPB VPWR
.ends

* Black-box entry subcircuit for sky130_fd_sc_hd__decap_4 abstract view
.subckt sky130_fd_sc_hd__decap_4 VGND VNB VPB VPWR
.ends

* Black-box entry subcircuit for sky130_fd_sc_hd__decap_6 abstract view
.subckt sky130_fd_sc_hd__decap_6 VGND VNB VPB VPWR
.ends

* Black-box entry subcircuit for sky130_fd_sc_hd__conb_1 abstract view
.subckt sky130_fd_sc_hd__conb_1 VGND VNB VPB VPWR HI LO
.ends

* Black-box entry subcircuit for sky130_fd_sc_hd__a21oi_1 abstract view
.subckt sky130_fd_sc_hd__a21oi_1 A1 A2 B1 VGND VNB VPB VPWR Y
.ends

* Black-box entry subcircuit for sky130_fd_sc_hd__tapvpwrvgnd_1 abstract view
.subckt sky130_fd_sc_hd__tapvpwrvgnd_1 VGND VPWR
.ends

* Black-box entry subcircuit for sky130_fd_sc_hd__o211a_1 abstract view
.subckt sky130_fd_sc_hd__o211a_1 A1 A2 B1 C1 VGND VNB VPB VPWR X
.ends

* Black-box entry subcircuit for sky130_fd_sc_hd__fill_1 abstract view
.subckt sky130_fd_sc_hd__fill_1 VGND VNB VPB VPWR
.ends

* Black-box entry subcircuit for sky130_fd_sc_hd__fill_2 abstract view
.subckt sky130_fd_sc_hd__fill_2 VGND VNB VPB VPWR
.ends

* Black-box entry subcircuit for sky130_fd_sc_hd__inv_2 abstract view
.subckt sky130_fd_sc_hd__inv_2 A VGND VNB VPB VPWR Y
.ends

* Black-box entry subcircuit for sky130_fd_sc_hd__decap_3 abstract view
.subckt sky130_fd_sc_hd__decap_3 VGND VNB VPB VPWR
.ends

* Black-box entry subcircuit for sky130_fd_sc_hd__a211oi_2 abstract view
.subckt sky130_fd_sc_hd__a211oi_2 A1 A2 B1 C1 VGND VNB VPB VPWR Y
.ends

* Black-box entry subcircuit for sky130_fd_sc_hd__dfxtp_1 abstract view
.subckt sky130_fd_sc_hd__dfxtp_1 CLK D VGND VNB VPB VPWR Q
.ends

* Black-box entry subcircuit for sky130_fd_sc_hd__a31o_1 abstract view
.subckt sky130_fd_sc_hd__a31o_1 A1 A2 A3 B1 VGND VNB VPB VPWR X
.ends

* Black-box entry subcircuit for sky130_fd_sc_hd__clkbuf_1 abstract view
.subckt sky130_fd_sc_hd__clkbuf_1 A VGND VNB VPB VPWR X
.ends

* Black-box entry subcircuit for sky130_fd_sc_hd__or4_4 abstract view
.subckt sky130_fd_sc_hd__or4_4 A B C D VGND VNB VPB VPWR X
.ends

* Black-box entry subcircuit for sky130_fd_sc_hd__clkbuf_16 abstract view
.subckt sky130_fd_sc_hd__clkbuf_16 A VGND VNB VPB VPWR X
.ends

* Black-box entry subcircuit for sky130_fd_sc_hd__nand2_1 abstract view
.subckt sky130_fd_sc_hd__nand2_1 A B VGND VNB VPB VPWR Y
.ends

* Black-box entry subcircuit for sky130_fd_sc_hd__o211ai_1 abstract view
.subckt sky130_fd_sc_hd__o211ai_1 A1 A2 B1 C1 VGND VNB VPB VPWR Y
.ends

* Black-box entry subcircuit for sky130_fd_sc_hd__and3_1 abstract view
.subckt sky130_fd_sc_hd__and3_1 A B C VGND VNB VPB VPWR X
.ends

* Black-box entry subcircuit for sky130_fd_sc_hd__o311a_1 abstract view
.subckt sky130_fd_sc_hd__o311a_1 A1 A2 A3 B1 C1 VGND VNB VPB VPWR X
.ends

* Black-box entry subcircuit for sky130_fd_sc_hd__nor2_1 abstract view
.subckt sky130_fd_sc_hd__nor2_1 A B VGND VNB VPB VPWR Y
.ends

* Black-box entry subcircuit for sky130_fd_sc_hd__clkbuf_2 abstract view
.subckt sky130_fd_sc_hd__clkbuf_2 A VGND VNB VPB VPWR X
.ends

* Black-box entry subcircuit for sky130_fd_sc_hd__o221a_1 abstract view
.subckt sky130_fd_sc_hd__o221a_1 A1 A2 B1 B2 C1 VGND VNB VPB VPWR X
.ends

* Black-box entry subcircuit for sky130_fd_sc_hd__nor3_1 abstract view
.subckt sky130_fd_sc_hd__nor3_1 A B C VGND VNB VPB VPWR Y
.ends

* Black-box entry subcircuit for sky130_fd_sc_hd__or2_1 abstract view
.subckt sky130_fd_sc_hd__or2_1 A B VGND VNB VPB VPWR X
.ends

* Black-box entry subcircuit for sky130_fd_sc_hd__nand2_2 abstract view
.subckt sky130_fd_sc_hd__nand2_2 A B VGND VNB VPB VPWR Y
.ends

.subckt clk_divider clk clock_out VPWR VGND
XFILLER_39_244 VGND VGND VPWR VPWR sky130_fd_sc_hd__decap_12
XFILLER_10_306 VGND VGND VPWR VPWR sky130_fd_sc_hd__decap_8
XFILLER_22_111 VGND VGND VPWR VPWR sky130_fd_sc_hd__decap_12
XFILLER_22_144 VGND VGND VPWR VPWR sky130_fd_sc_hd__decap_12
XFILLER_26_30 VGND VGND VPWR VPWR sky130_fd_sc_hd__decap_12
XFILLER_9_115 VGND VGND VPWR VPWR sky130_fd_sc_hd__decap_12
XFILLER_5_310 VGND VGND VPWR VPWR sky130_fd_sc_hd__decap_4
XFILLER_36_258 VGND VGND VPWR VPWR sky130_fd_sc_hd__decap_4
XFILLER_8_192 VGND VGND VPWR VPWR sky130_fd_sc_hd__decap_8
XFILLER_50_294 VGND VGND VPWR VPWR sky130_fd_sc_hd__decap_12
XFILLER_12_54 VGND VGND VPWR VPWR sky130_fd_sc_hd__decap_12
XFILLER_12_87 VGND VGND VPWR VPWR sky130_fd_sc_hd__decap_12
XFILLER_18_225 VGND VGND VPWR VPWR sky130_fd_sc_hd__decap_12
XFILLER_18_258 VGND VGND VPWR VPWR sky130_fd_sc_hd__decap_12
XFILLER_37_51 VGND VGND VPWR VPWR sky130_fd_sc_hd__decap_6
XFILLER_33_217 VGND VGND VPWR VPWR sky130_fd_sc_hd__decap_4
XFILLER_5_151 VGND VGND VPWR VPWR sky130_fd_sc_hd__decap_12
XFILLER_5_184 VGND VGND VPWR VPWR sky130_fd_sc_hd__decap_12
XFILLER_32_294 VGND VGND VPWR VPWR sky130_fd_sc_hd__decap_12
X_131_ VGND VGND VPWR VPWR _131_/HI _159_/D sky130_fd_sc_hd__conb_1
XFILLER_14_294 VGND VGND VPWR VPWR sky130_fd_sc_hd__decap_12
XFILLER_50_3 VGND VGND VPWR VPWR sky130_fd_sc_hd__decap_12
XFILLER_47_139 VGND VGND VPWR VPWR sky130_fd_sc_hd__decap_12
XFILLER_47_106 VGND VGND VPWR VPWR sky130_fd_sc_hd__decap_8
XFILLER_18_42 VGND VGND VPWR VPWR sky130_fd_sc_hd__decap_12
XFILLER_11_220 VGND VGND VPWR VPWR sky130_fd_sc_hd__decap_8
XFILLER_11_253 VGND VGND VPWR VPWR sky130_fd_sc_hd__decap_12
XFILLER_34_30 VGND VGND VPWR VPWR sky130_fd_sc_hd__decap_12
X_114_ _148_/Q _082_/C _149_/Q VGND VGND VPWR VPWR _115_/B sky130_fd_sc_hd__a21oi_1
XFILLER_11_286 VGND VGND VPWR VPWR sky130_fd_sc_hd__decap_12
XFILLER_38_139 VGND VGND VPWR VPWR sky130_fd_sc_hd__decap_4
XFILLER_29_106 VGND VGND VPWR VPWR sky130_fd_sc_hd__decap_8
XFILLER_29_139 VGND VGND VPWR VPWR sky130_fd_sc_hd__decap_12
XFILLER_37_172 VGND VGND VPWR VPWR sky130_fd_sc_hd__decap_4
XFILLER_52_175 VGND VGND VPWR VPWR sky130_fd_sc_hd__decap_12
XFILLER_4_249 VGND VGND VPWR VPWR sky130_fd_sc_hd__decap_8
XFILLER_20_54 VGND VGND VPWR VPWR sky130_fd_sc_hd__decap_12
XFILLER_20_87 VGND VGND VPWR VPWR sky130_fd_sc_hd__decap_12
XFILLER_45_51 VGND VGND VPWR VPWR sky130_fd_sc_hd__decap_6
XPHY_395 VGND VPWR sky130_fd_sc_hd__tapvpwrvgnd_1
XPHY_384 VGND VPWR sky130_fd_sc_hd__tapvpwrvgnd_1
XPHY_373 VGND VPWR sky130_fd_sc_hd__tapvpwrvgnd_1
XPHY_362 VGND VPWR sky130_fd_sc_hd__tapvpwrvgnd_1
XPHY_351 VGND VPWR sky130_fd_sc_hd__tapvpwrvgnd_1
XPHY_340 VGND VPWR sky130_fd_sc_hd__tapvpwrvgnd_1
XFILLER_6_78 VGND VGND VPWR VPWR sky130_fd_sc_hd__decap_8
XFILLER_13_3 VGND VGND VPWR VPWR sky130_fd_sc_hd__decap_12
XFILLER_19_172 VGND VGND VPWR VPWR sky130_fd_sc_hd__decap_12
XFILLER_1_208 VGND VGND VPWR VPWR sky130_fd_sc_hd__decap_12
XFILLER_40_123 VGND VGND VPWR VPWR sky130_fd_sc_hd__decap_12
XFILLER_48_201 VGND VGND VPWR VPWR sky130_fd_sc_hd__decap_12
XFILLER_0_274 VGND VGND VPWR VPWR sky130_fd_sc_hd__decap_12
XPHY_170 VGND VPWR sky130_fd_sc_hd__tapvpwrvgnd_1
XFILLER_31_167 VGND VGND VPWR VPWR sky130_fd_sc_hd__decap_4
XPHY_181 VGND VPWR sky130_fd_sc_hd__tapvpwrvgnd_1
XPHY_192 VGND VPWR sky130_fd_sc_hd__tapvpwrvgnd_1
XFILLER_39_256 VGND VGND VPWR VPWR sky130_fd_sc_hd__decap_12
XFILLER_22_123 VGND VGND VPWR VPWR sky130_fd_sc_hd__decap_12
XFILLER_22_156 VGND VGND VPWR VPWR sky130_fd_sc_hd__decap_12
XFILLER_26_42 VGND VGND VPWR VPWR sky130_fd_sc_hd__decap_12
XFILLER_42_30 VGND VGND VPWR VPWR sky130_fd_sc_hd__decap_12
XFILLER_9_127 VGND VGND VPWR VPWR sky130_fd_sc_hd__decap_12
XFILLER_51_229 VGND VGND VPWR VPWR sky130_fd_sc_hd__decap_12
XFILLER_44_270 VGND VGND VPWR VPWR sky130_fd_sc_hd__decap_12
XFILLER_12_66 VGND VGND VPWR VPWR sky130_fd_sc_hd__decap_12
XFILLER_12_99 VGND VGND VPWR VPWR sky130_fd_sc_hd__decap_12
XFILLER_18_237 VGND VGND VPWR VPWR sky130_fd_sc_hd__decap_12
XFILLER_26_270 VGND VGND VPWR VPWR sky130_fd_sc_hd__decap_12
XFILLER_33_229 VGND VGND VPWR VPWR sky130_fd_sc_hd__decap_4
XFILLER_5_196 VGND VGND VPWR VPWR sky130_fd_sc_hd__decap_12
XFILLER_5_163 VGND VGND VPWR VPWR sky130_fd_sc_hd__decap_8
X_130_ VGND VGND VPWR VPWR _130_/HI _158_/D sky130_fd_sc_hd__conb_1
XFILLER_15_229 VGND VGND VPWR VPWR sky130_fd_sc_hd__decap_12
XFILLER_2_111 VGND VGND VPWR VPWR sky130_fd_sc_hd__decap_12
XFILLER_2_144 VGND VGND VPWR VPWR sky130_fd_sc_hd__decap_12
XFILLER_43_3 VGND VGND VPWR VPWR sky130_fd_sc_hd__decap_12
XFILLER_37_310 VGND VGND VPWR VPWR sky130_fd_sc_hd__decap_4
XFILLER_18_54 VGND VGND VPWR VPWR sky130_fd_sc_hd__decap_12
XFILLER_18_87 VGND VGND VPWR VPWR sky130_fd_sc_hd__decap_12
XFILLER_50_30 VGND VGND VPWR VPWR sky130_fd_sc_hd__decap_12
X_113_ _150_/Q _115_/A _111_/A _108_/X VGND VGND VPWR VPWR _150_/D sky130_fd_sc_hd__o211a_1
XFILLER_11_265 VGND VGND VPWR VPWR sky130_fd_sc_hd__decap_12
XFILLER_11_298 VGND VGND VPWR VPWR sky130_fd_sc_hd__decap_12
XFILLER_34_42 VGND VGND VPWR VPWR sky130_fd_sc_hd__decap_12
XFILLER_19_310 VGND VGND VPWR VPWR sky130_fd_sc_hd__decap_4
XFILLER_37_184 VGND VGND VPWR VPWR sky130_fd_sc_hd__decap_8
XFILLER_52_187 VGND VGND VPWR VPWR sky130_fd_sc_hd__decap_12
XFILLER_20_66 VGND VGND VPWR VPWR sky130_fd_sc_hd__decap_12
XFILLER_20_99 VGND VGND VPWR VPWR sky130_fd_sc_hd__decap_12
XPHY_352 VGND VPWR sky130_fd_sc_hd__tapvpwrvgnd_1
XPHY_341 VGND VPWR sky130_fd_sc_hd__tapvpwrvgnd_1
XFILLER_28_184 VGND VGND VPWR VPWR sky130_fd_sc_hd__decap_12
XPHY_330 VGND VPWR sky130_fd_sc_hd__tapvpwrvgnd_1
XPHY_396 VGND VPWR sky130_fd_sc_hd__tapvpwrvgnd_1
XPHY_385 VGND VPWR sky130_fd_sc_hd__tapvpwrvgnd_1
XPHY_374 VGND VPWR sky130_fd_sc_hd__tapvpwrvgnd_1
XPHY_363 VGND VPWR sky130_fd_sc_hd__tapvpwrvgnd_1
XFILLER_19_151 VGND VGND VPWR VPWR sky130_fd_sc_hd__decap_12
XFILLER_19_184 VGND VGND VPWR VPWR sky130_fd_sc_hd__decap_12
XFILLER_34_187 VGND VGND VPWR VPWR sky130_fd_sc_hd__decap_4
XFILLER_40_135 VGND VGND VPWR VPWR sky130_fd_sc_hd__fill_1
XFILLER_48_213 VGND VGND VPWR VPWR sky130_fd_sc_hd__decap_12
XFILLER_0_286 VGND VGND VPWR VPWR sky130_fd_sc_hd__decap_4
XPHY_160 VGND VPWR sky130_fd_sc_hd__tapvpwrvgnd_1
XPHY_171 VGND VPWR sky130_fd_sc_hd__tapvpwrvgnd_1
XPHY_182 VGND VPWR sky130_fd_sc_hd__tapvpwrvgnd_1
XPHY_193 VGND VPWR sky130_fd_sc_hd__tapvpwrvgnd_1
XFILLER_39_268 VGND VGND VPWR VPWR sky130_fd_sc_hd__decap_12
XFILLER_22_135 VGND VGND VPWR VPWR sky130_fd_sc_hd__decap_8
XFILLER_22_168 VGND VGND VPWR VPWR sky130_fd_sc_hd__decap_12
XFILLER_45_227 VGND VGND VPWR VPWR sky130_fd_sc_hd__fill_1
XFILLER_42_42 VGND VGND VPWR VPWR sky130_fd_sc_hd__decap_12
XFILLER_9_139 VGND VGND VPWR VPWR sky130_fd_sc_hd__decap_12
XFILLER_9_106 VGND VGND VPWR VPWR sky130_fd_sc_hd__decap_8
XFILLER_26_54 VGND VGND VPWR VPWR sky130_fd_sc_hd__decap_12
XFILLER_26_87 VGND VGND VPWR VPWR sky130_fd_sc_hd__decap_12
XFILLER_3_58 VGND VGND VPWR VPWR sky130_fd_sc_hd__decap_12
XFILLER_51_208 VGND VGND VPWR VPWR sky130_fd_sc_hd__decap_12
XFILLER_44_282 VGND VGND VPWR VPWR sky130_fd_sc_hd__decap_12
XFILLER_36_238 VGND VGND VPWR VPWR sky130_fd_sc_hd__decap_4
XFILLER_12_78 VGND VGND VPWR VPWR sky130_fd_sc_hd__decap_8
XFILLER_18_249 VGND VGND VPWR VPWR sky130_fd_sc_hd__decap_8
XFILLER_26_282 VGND VGND VPWR VPWR sky130_fd_sc_hd__decap_12
XFILLER_41_241 VGND VGND VPWR VPWR sky130_fd_sc_hd__decap_12
XFILLER_32_241 VGND VGND VPWR VPWR sky130_fd_sc_hd__decap_4
XFILLER_15_208 VGND VGND VPWR VPWR sky130_fd_sc_hd__decap_12
XFILLER_23_241 VGND VGND VPWR VPWR sky130_fd_sc_hd__decap_12
XFILLER_3_3 VGND VGND VPWR VPWR sky130_fd_sc_hd__decap_12
XFILLER_2_156 VGND VGND VPWR VPWR sky130_fd_sc_hd__decap_12
XFILLER_2_123 VGND VGND VPWR VPWR sky130_fd_sc_hd__decap_12
XFILLER_48_30 VGND VGND VPWR VPWR sky130_fd_sc_hd__decap_12
XFILLER_0_59 VGND VGND VPWR VPWR sky130_fd_sc_hd__decap_12
XFILLER_36_3 VGND VGND VPWR VPWR sky130_fd_sc_hd__decap_12
XFILLER_52_303 VGND VGND VPWR VPWR sky130_fd_sc_hd__decap_12
XFILLER_43_314 VGND VGND VPWR VPWR sky130_fd_sc_hd__fill_1
XFILLER_18_66 VGND VGND VPWR VPWR sky130_fd_sc_hd__decap_12
XFILLER_18_99 VGND VGND VPWR VPWR sky130_fd_sc_hd__decap_12
XFILLER_34_54 VGND VGND VPWR VPWR sky130_fd_sc_hd__decap_12
XFILLER_50_42 VGND VGND VPWR VPWR sky130_fd_sc_hd__decap_12
XFILLER_11_277 VGND VGND VPWR VPWR sky130_fd_sc_hd__decap_8
XFILLER_34_87 VGND VGND VPWR VPWR sky130_fd_sc_hd__decap_12
X_112_ _151_/Q _111_/Y _085_/B _108_/X VGND VGND VPWR VPWR _151_/D sky130_fd_sc_hd__o211a_1
XFILLER_46_152 VGND VGND VPWR VPWR sky130_fd_sc_hd__fill_2
XFILLER_6_270 VGND VGND VPWR VPWR sky130_fd_sc_hd__decap_12
XFILLER_52_100 VGND VGND VPWR VPWR sky130_fd_sc_hd__decap_12
XFILLER_40_306 VGND VGND VPWR VPWR sky130_fd_sc_hd__decap_8
XFILLER_25_314 VGND VGND VPWR VPWR sky130_fd_sc_hd__fill_1
XFILLER_52_199 VGND VGND VPWR VPWR sky130_fd_sc_hd__decap_4
XFILLER_20_78 VGND VGND VPWR VPWR sky130_fd_sc_hd__decap_8
XPHY_386 VGND VPWR sky130_fd_sc_hd__tapvpwrvgnd_1
XPHY_375 VGND VPWR sky130_fd_sc_hd__tapvpwrvgnd_1
XPHY_364 VGND VPWR sky130_fd_sc_hd__tapvpwrvgnd_1
XPHY_353 VGND VPWR sky130_fd_sc_hd__tapvpwrvgnd_1
XPHY_342 VGND VPWR sky130_fd_sc_hd__tapvpwrvgnd_1
XFILLER_28_196 VGND VGND VPWR VPWR sky130_fd_sc_hd__decap_4
XPHY_320 VGND VPWR sky130_fd_sc_hd__tapvpwrvgnd_1
XPHY_331 VGND VPWR sky130_fd_sc_hd__tapvpwrvgnd_1
XPHY_397 VGND VPWR sky130_fd_sc_hd__tapvpwrvgnd_1
XFILLER_19_163 VGND VGND VPWR VPWR sky130_fd_sc_hd__decap_8
XFILLER_19_196 VGND VGND VPWR VPWR sky130_fd_sc_hd__decap_12
XFILLER_22_306 VGND VGND VPWR VPWR sky130_fd_sc_hd__decap_8
XFILLER_34_111 VGND VGND VPWR VPWR sky130_fd_sc_hd__decap_12
XFILLER_34_144 VGND VGND VPWR VPWR sky130_fd_sc_hd__decap_12
XFILLER_48_225 VGND VGND VPWR VPWR sky130_fd_sc_hd__decap_12
XFILLER_48_258 VGND VGND VPWR VPWR sky130_fd_sc_hd__decap_12
XFILLER_16_111 VGND VGND VPWR VPWR sky130_fd_sc_hd__decap_12
XFILLER_16_144 VGND VGND VPWR VPWR sky130_fd_sc_hd__decap_12
XPHY_161 VGND VPWR sky130_fd_sc_hd__tapvpwrvgnd_1
XPHY_150 VGND VPWR sky130_fd_sc_hd__tapvpwrvgnd_1
XPHY_172 VGND VPWR sky130_fd_sc_hd__tapvpwrvgnd_1
XPHY_183 VGND VPWR sky130_fd_sc_hd__tapvpwrvgnd_1
XPHY_194 VGND VPWR sky130_fd_sc_hd__tapvpwrvgnd_1
XFILLER_26_66 VGND VGND VPWR VPWR sky130_fd_sc_hd__decap_12
XFILLER_42_87 VGND VGND VPWR VPWR sky130_fd_sc_hd__decap_12
XFILLER_42_54 VGND VGND VPWR VPWR sky130_fd_sc_hd__decap_12
XFILLER_26_99 VGND VGND VPWR VPWR sky130_fd_sc_hd__decap_12
XFILLER_3_15 VGND VGND VPWR VPWR sky130_fd_sc_hd__decap_12
XFILLER_44_294 VGND VGND VPWR VPWR sky130_fd_sc_hd__decap_12
XFILLER_12_180 VGND VGND VPWR VPWR sky130_fd_sc_hd__decap_12
XFILLER_35_283 VGND VGND VPWR VPWR sky130_fd_sc_hd__fill_2
XFILLER_26_294 VGND VGND VPWR VPWR sky130_fd_sc_hd__decap_12
XFILLER_41_286 VGND VGND VPWR VPWR sky130_fd_sc_hd__decap_12
XFILLER_41_253 VGND VGND VPWR VPWR sky130_fd_sc_hd__decap_12
XFILLER_23_220 VGND VGND VPWR VPWR sky130_fd_sc_hd__decap_8
XFILLER_23_253 VGND VGND VPWR VPWR sky130_fd_sc_hd__decap_12
XFILLER_23_286 VGND VGND VPWR VPWR sky130_fd_sc_hd__decap_12
XFILLER_2_168 VGND VGND VPWR VPWR sky130_fd_sc_hd__decap_12
XFILLER_2_135 VGND VGND VPWR VPWR sky130_fd_sc_hd__decap_8
XFILLER_48_42 VGND VGND VPWR VPWR sky130_fd_sc_hd__decap_12
XFILLER_9_58 VGND VGND VPWR VPWR sky130_fd_sc_hd__decap_12
XFILLER_29_3 VGND VGND VPWR VPWR sky130_fd_sc_hd__decap_12
XFILLER_49_172 VGND VGND VPWR VPWR sky130_fd_sc_hd__decap_12
XFILLER_20_201 VGND VGND VPWR VPWR sky130_fd_sc_hd__decap_12
XFILLER_18_78 VGND VGND VPWR VPWR sky130_fd_sc_hd__decap_8
XFILLER_34_66 VGND VGND VPWR VPWR sky130_fd_sc_hd__decap_12
XFILLER_50_87 VGND VGND VPWR VPWR sky130_fd_sc_hd__decap_12
XFILLER_50_54 VGND VGND VPWR VPWR sky130_fd_sc_hd__decap_12
X_111_ _111_/A VGND VGND VPWR VPWR _111_/Y sky130_fd_sc_hd__inv_2
XFILLER_34_99 VGND VGND VPWR VPWR sky130_fd_sc_hd__decap_12
XFILLER_6_282 VGND VGND VPWR VPWR sky130_fd_sc_hd__decap_12
XFILLER_52_112 VGND VGND VPWR VPWR sky130_fd_sc_hd__decap_4
XFILLER_1_70 VGND VGND VPWR VPWR sky130_fd_sc_hd__decap_12
XPHY_398 VGND VPWR sky130_fd_sc_hd__tapvpwrvgnd_1
XPHY_387 VGND VPWR sky130_fd_sc_hd__tapvpwrvgnd_1
XPHY_376 VGND VPWR sky130_fd_sc_hd__tapvpwrvgnd_1
XPHY_365 VGND VPWR sky130_fd_sc_hd__tapvpwrvgnd_1
XPHY_354 VGND VPWR sky130_fd_sc_hd__tapvpwrvgnd_1
XFILLER_43_178 VGND VGND VPWR VPWR sky130_fd_sc_hd__fill_1
XFILLER_43_167 VGND VGND VPWR VPWR sky130_fd_sc_hd__decap_4
XPHY_343 VGND VPWR sky130_fd_sc_hd__tapvpwrvgnd_1
XPHY_332 VGND VPWR sky130_fd_sc_hd__tapvpwrvgnd_1
XPHY_310 VGND VPWR sky130_fd_sc_hd__tapvpwrvgnd_1
XPHY_321 VGND VPWR sky130_fd_sc_hd__tapvpwrvgnd_1
XFILLER_6_15 VGND VGND VPWR VPWR sky130_fd_sc_hd__decap_12
XFILLER_3_241 VGND VGND VPWR VPWR sky130_fd_sc_hd__decap_12
XFILLER_34_123 VGND VGND VPWR VPWR sky130_fd_sc_hd__decap_12
XFILLER_34_156 VGND VGND VPWR VPWR sky130_fd_sc_hd__fill_2
XFILLER_48_237 VGND VGND VPWR VPWR sky130_fd_sc_hd__decap_12
XFILLER_0_233 VGND VGND VPWR VPWR sky130_fd_sc_hd__decap_12
XFILLER_16_123 VGND VGND VPWR VPWR sky130_fd_sc_hd__decap_12
XFILLER_16_156 VGND VGND VPWR VPWR sky130_fd_sc_hd__decap_12
XFILLER_31_115 VGND VGND VPWR VPWR sky130_fd_sc_hd__decap_12
XPHY_162 VGND VPWR sky130_fd_sc_hd__tapvpwrvgnd_1
XPHY_151 VGND VPWR sky130_fd_sc_hd__tapvpwrvgnd_1
XPHY_140 VGND VPWR sky130_fd_sc_hd__tapvpwrvgnd_1
XPHY_173 VGND VPWR sky130_fd_sc_hd__tapvpwrvgnd_1
XPHY_184 VGND VPWR sky130_fd_sc_hd__tapvpwrvgnd_1
XPHY_195 VGND VPWR sky130_fd_sc_hd__tapvpwrvgnd_1
XFILLER_31_159 VGND VGND VPWR VPWR sky130_fd_sc_hd__decap_3
XFILLER_39_237 VGND VGND VPWR VPWR sky130_fd_sc_hd__decap_4
XFILLER_39_226 VGND VGND VPWR VPWR sky130_fd_sc_hd__fill_2
XFILLER_11_3 VGND VGND VPWR VPWR sky130_fd_sc_hd__decap_12
XFILLER_45_229 VGND VGND VPWR VPWR sky130_fd_sc_hd__decap_12
XFILLER_13_115 VGND VGND VPWR VPWR sky130_fd_sc_hd__decap_12
XFILLER_26_78 VGND VGND VPWR VPWR sky130_fd_sc_hd__decap_8
XFILLER_38_270 VGND VGND VPWR VPWR sky130_fd_sc_hd__decap_12
XFILLER_42_99 VGND VGND VPWR VPWR sky130_fd_sc_hd__decap_12
XFILLER_42_66 VGND VGND VPWR VPWR sky130_fd_sc_hd__decap_12
XFILLER_5_314 VGND VGND VPWR VPWR sky130_fd_sc_hd__fill_1
XFILLER_3_27 VGND VGND VPWR VPWR sky130_fd_sc_hd__decap_12
XFILLER_36_207 VGND VGND VPWR VPWR sky130_fd_sc_hd__fill_1
XFILLER_12_192 VGND VGND VPWR VPWR sky130_fd_sc_hd__decap_8
XFILLER_27_229 VGND VGND VPWR VPWR sky130_fd_sc_hd__decap_12
XFILLER_2_306 VGND VGND VPWR VPWR sky130_fd_sc_hd__decap_8
XFILLER_41_265 VGND VGND VPWR VPWR sky130_fd_sc_hd__decap_12
XFILLER_41_221 VGND VGND VPWR VPWR sky130_fd_sc_hd__decap_6
XFILLER_41_298 VGND VGND VPWR VPWR sky130_fd_sc_hd__decap_12
XFILLER_49_310 VGND VGND VPWR VPWR sky130_fd_sc_hd__decap_4
XFILLER_32_210 VGND VGND VPWR VPWR sky130_fd_sc_hd__decap_6
XFILLER_32_232 VGND VGND VPWR VPWR sky130_fd_sc_hd__decap_4
XFILLER_23_265 VGND VGND VPWR VPWR sky130_fd_sc_hd__decap_12
XFILLER_23_298 VGND VGND VPWR VPWR sky130_fd_sc_hd__decap_12
XFILLER_48_87 VGND VGND VPWR VPWR sky130_fd_sc_hd__decap_12
XFILLER_48_54 VGND VGND VPWR VPWR sky130_fd_sc_hd__decap_12
XFILLER_9_15 VGND VGND VPWR VPWR sky130_fd_sc_hd__decap_12
XFILLER_49_184 VGND VGND VPWR VPWR sky130_fd_sc_hd__decap_12
XFILLER_49_151 VGND VGND VPWR VPWR sky130_fd_sc_hd__decap_12
XFILLER_20_213 VGND VGND VPWR VPWR sky130_fd_sc_hd__decap_12
XFILLER_34_78 VGND VGND VPWR VPWR sky130_fd_sc_hd__decap_8
X_110_ _085_/A _085_/B _107_/Y _125_/B VGND VGND VPWR VPWR _152_/D sky130_fd_sc_hd__a211oi_2
XFILLER_50_99 VGND VGND VPWR VPWR sky130_fd_sc_hd__decap_12
XFILLER_50_66 VGND VGND VPWR VPWR sky130_fd_sc_hd__decap_12
XFILLER_46_198 VGND VGND VPWR VPWR sky130_fd_sc_hd__fill_2
XFILLER_41_3 VGND VGND VPWR VPWR sky130_fd_sc_hd__decap_12
XFILLER_6_294 VGND VGND VPWR VPWR sky130_fd_sc_hd__decap_12
XFILLER_1_82 VGND VGND VPWR VPWR sky130_fd_sc_hd__decap_12
XFILLER_37_165 VGND VGND VPWR VPWR sky130_fd_sc_hd__decap_6
XFILLER_52_146 VGND VGND VPWR VPWR sky130_fd_sc_hd__decap_12
XFILLER_37_176 VGND VGND VPWR VPWR sky130_fd_sc_hd__fill_1
XPHY_300 VGND VPWR sky130_fd_sc_hd__tapvpwrvgnd_1
XPHY_399 VGND VPWR sky130_fd_sc_hd__tapvpwrvgnd_1
XPHY_388 VGND VPWR sky130_fd_sc_hd__tapvpwrvgnd_1
XPHY_377 VGND VPWR sky130_fd_sc_hd__tapvpwrvgnd_1
XPHY_366 VGND VPWR sky130_fd_sc_hd__tapvpwrvgnd_1
XPHY_355 VGND VPWR sky130_fd_sc_hd__tapvpwrvgnd_1
XPHY_344 VGND VPWR sky130_fd_sc_hd__tapvpwrvgnd_1
XPHY_333 VGND VPWR sky130_fd_sc_hd__tapvpwrvgnd_1
XPHY_311 VGND VPWR sky130_fd_sc_hd__tapvpwrvgnd_1
XPHY_322 VGND VPWR sky130_fd_sc_hd__tapvpwrvgnd_1
XFILLER_6_27 VGND VGND VPWR VPWR sky130_fd_sc_hd__fill_2
XFILLER_3_286 VGND VGND VPWR VPWR sky130_fd_sc_hd__decap_12
XFILLER_3_253 VGND VGND VPWR VPWR sky130_fd_sc_hd__decap_12
XFILLER_3_220 VGND VGND VPWR VPWR sky130_fd_sc_hd__decap_8
XFILLER_34_135 VGND VGND VPWR VPWR sky130_fd_sc_hd__decap_8
XFILLER_15_58 VGND VGND VPWR VPWR sky130_fd_sc_hd__decap_12
XFILLER_33_190 VGND VGND VPWR VPWR sky130_fd_sc_hd__decap_4
XFILLER_48_249 VGND VGND VPWR VPWR sky130_fd_sc_hd__decap_8
XFILLER_0_245 VGND VGND VPWR VPWR sky130_fd_sc_hd__decap_12
XPHY_152 VGND VPWR sky130_fd_sc_hd__tapvpwrvgnd_1
XPHY_141 VGND VPWR sky130_fd_sc_hd__tapvpwrvgnd_1
XPHY_130 VGND VPWR sky130_fd_sc_hd__tapvpwrvgnd_1
XFILLER_16_135 VGND VGND VPWR VPWR sky130_fd_sc_hd__decap_8
XFILLER_16_168 VGND VGND VPWR VPWR sky130_fd_sc_hd__decap_12
XFILLER_31_127 VGND VGND VPWR VPWR sky130_fd_sc_hd__decap_12
XPHY_163 VGND VPWR sky130_fd_sc_hd__tapvpwrvgnd_1
XPHY_174 VGND VPWR sky130_fd_sc_hd__tapvpwrvgnd_1
XPHY_185 VGND VPWR sky130_fd_sc_hd__tapvpwrvgnd_1
XPHY_196 VGND VPWR sky130_fd_sc_hd__tapvpwrvgnd_1
XFILLER_7_70 VGND VGND VPWR VPWR sky130_fd_sc_hd__decap_12
XFILLER_13_127 VGND VGND VPWR VPWR sky130_fd_sc_hd__decap_12
XFILLER_38_282 VGND VGND VPWR VPWR sky130_fd_sc_hd__decap_12
XFILLER_42_78 VGND VGND VPWR VPWR sky130_fd_sc_hd__decap_8
XFILLER_3_39 VGND VGND VPWR VPWR sky130_fd_sc_hd__decap_12
XFILLER_27_208 VGND VGND VPWR VPWR sky130_fd_sc_hd__decap_12
XFILLER_35_263 VGND VGND VPWR VPWR sky130_fd_sc_hd__decap_12
XFILLER_12_15 VGND VGND VPWR VPWR sky130_fd_sc_hd__decap_12
XFILLER_41_277 VGND VGND VPWR VPWR sky130_fd_sc_hd__decap_8
XFILLER_17_241 VGND VGND VPWR VPWR sky130_fd_sc_hd__decap_12
XFILLER_23_277 VGND VGND VPWR VPWR sky130_fd_sc_hd__decap_8
XFILLER_23_58 VGND VGND VPWR VPWR sky130_fd_sc_hd__decap_12
XFILLER_48_66 VGND VGND VPWR VPWR sky130_fd_sc_hd__decap_12
XFILLER_48_99 VGND VGND VPWR VPWR sky130_fd_sc_hd__decap_12
XFILLER_9_27 VGND VGND VPWR VPWR sky130_fd_sc_hd__decap_12
XFILLER_49_196 VGND VGND VPWR VPWR sky130_fd_sc_hd__decap_12
XFILLER_49_163 VGND VGND VPWR VPWR sky130_fd_sc_hd__decap_8
XFILLER_37_314 VGND VGND VPWR VPWR sky130_fd_sc_hd__fill_1
XFILLER_20_225 VGND VGND VPWR VPWR sky130_fd_sc_hd__decap_12
XFILLER_20_258 VGND VGND VPWR VPWR sky130_fd_sc_hd__decap_12
XFILLER_7_229 VGND VGND VPWR VPWR sky130_fd_sc_hd__decap_12
XFILLER_50_78 VGND VGND VPWR VPWR sky130_fd_sc_hd__decap_8
XFILLER_1_3 VGND VGND VPWR VPWR sky130_fd_sc_hd__decap_12
XFILLER_46_111 VGND VGND VPWR VPWR sky130_fd_sc_hd__decap_12
XFILLER_19_314 VGND VGND VPWR VPWR sky130_fd_sc_hd__fill_1
XFILLER_46_144 VGND VGND VPWR VPWR sky130_fd_sc_hd__decap_8
XFILLER_34_306 VGND VGND VPWR VPWR sky130_fd_sc_hd__decap_8
X_169_ _170_/CLK _169_/D VGND VGND VPWR VPWR _169_/Q sky130_fd_sc_hd__dfxtp_1
XFILLER_34_3 VGND VGND VPWR VPWR sky130_fd_sc_hd__decap_12
XFILLER_1_94 VGND VGND VPWR VPWR sky130_fd_sc_hd__decap_12
XFILLER_52_158 VGND VGND VPWR VPWR sky130_fd_sc_hd__decap_12
XFILLER_20_15 VGND VGND VPWR VPWR sky130_fd_sc_hd__decap_12
XFILLER_28_111 VGND VGND VPWR VPWR sky130_fd_sc_hd__decap_12
XPHY_334 VGND VPWR sky130_fd_sc_hd__tapvpwrvgnd_1
XFILLER_16_306 VGND VGND VPWR VPWR sky130_fd_sc_hd__decap_8
XFILLER_28_144 VGND VGND VPWR VPWR sky130_fd_sc_hd__decap_12
XPHY_301 VGND VPWR sky130_fd_sc_hd__tapvpwrvgnd_1
XPHY_312 VGND VPWR sky130_fd_sc_hd__tapvpwrvgnd_1
XPHY_323 VGND VPWR sky130_fd_sc_hd__tapvpwrvgnd_1
XPHY_389 VGND VPWR sky130_fd_sc_hd__tapvpwrvgnd_1
XPHY_378 VGND VPWR sky130_fd_sc_hd__tapvpwrvgnd_1
XPHY_367 VGND VPWR sky130_fd_sc_hd__tapvpwrvgnd_1
XPHY_356 VGND VPWR sky130_fd_sc_hd__tapvpwrvgnd_1
XPHY_345 VGND VPWR sky130_fd_sc_hd__tapvpwrvgnd_1
XFILLER_3_298 VGND VGND VPWR VPWR sky130_fd_sc_hd__decap_12
XFILLER_3_265 VGND VGND VPWR VPWR sky130_fd_sc_hd__decap_12
XFILLER_42_180 VGND VGND VPWR VPWR sky130_fd_sc_hd__decap_4
XFILLER_15_15 VGND VGND VPWR VPWR sky130_fd_sc_hd__decap_12
XFILLER_40_139 VGND VGND VPWR VPWR sky130_fd_sc_hd__decap_4
XFILLER_31_58 VGND VGND VPWR VPWR sky130_fd_sc_hd__decap_12
XFILLER_33_180 VGND VGND VPWR VPWR sky130_fd_sc_hd__fill_1
XFILLER_0_257 VGND VGND VPWR VPWR sky130_fd_sc_hd__decap_4
XPHY_164 VGND VPWR sky130_fd_sc_hd__tapvpwrvgnd_1
XPHY_153 VGND VPWR sky130_fd_sc_hd__tapvpwrvgnd_1
XPHY_142 VGND VPWR sky130_fd_sc_hd__tapvpwrvgnd_1
XPHY_131 VGND VPWR sky130_fd_sc_hd__tapvpwrvgnd_1
XPHY_120 VGND VPWR sky130_fd_sc_hd__tapvpwrvgnd_1
XPHY_175 VGND VPWR sky130_fd_sc_hd__tapvpwrvgnd_1
XFILLER_24_180 VGND VGND VPWR VPWR sky130_fd_sc_hd__decap_12
XFILLER_31_106 VGND VGND VPWR VPWR sky130_fd_sc_hd__decap_8
XFILLER_31_139 VGND VGND VPWR VPWR sky130_fd_sc_hd__decap_12
XPHY_186 VGND VPWR sky130_fd_sc_hd__tapvpwrvgnd_1
XPHY_197 VGND VPWR sky130_fd_sc_hd__tapvpwrvgnd_1
XPHY_0 VGND VGND VPWR VPWR sky130_fd_sc_hd__decap_3
XFILLER_7_82 VGND VGND VPWR VPWR sky130_fd_sc_hd__decap_12
XFILLER_45_209 VGND VGND VPWR VPWR sky130_fd_sc_hd__decap_12
XFILLER_13_106 VGND VGND VPWR VPWR sky130_fd_sc_hd__decap_8
XFILLER_13_139 VGND VGND VPWR VPWR sky130_fd_sc_hd__decap_12
XFILLER_38_294 VGND VGND VPWR VPWR sky130_fd_sc_hd__decap_12
XFILLER_21_172 VGND VGND VPWR VPWR sky130_fd_sc_hd__decap_12
XFILLER_50_201 VGND VGND VPWR VPWR sky130_fd_sc_hd__decap_12
XFILLER_35_242 VGND VGND VPWR VPWR sky130_fd_sc_hd__decap_4
XFILLER_35_275 VGND VGND VPWR VPWR sky130_fd_sc_hd__decap_8
XFILLER_35_286 VGND VGND VPWR VPWR sky130_fd_sc_hd__decap_12
XFILLER_12_27 VGND VGND VPWR VPWR sky130_fd_sc_hd__fill_2
XFILLER_17_220 VGND VGND VPWR VPWR sky130_fd_sc_hd__decap_8
XFILLER_17_253 VGND VGND VPWR VPWR sky130_fd_sc_hd__decap_12
XFILLER_17_286 VGND VGND VPWR VPWR sky130_fd_sc_hd__decap_12
XFILLER_32_201 VGND VGND VPWR VPWR sky130_fd_sc_hd__decap_4
XFILLER_32_256 VGND VGND VPWR VPWR sky130_fd_sc_hd__fill_1
XFILLER_23_15 VGND VGND VPWR VPWR sky130_fd_sc_hd__decap_12
XFILLER_48_78 VGND VGND VPWR VPWR sky130_fd_sc_hd__decap_8
XFILLER_14_201 VGND VGND VPWR VPWR sky130_fd_sc_hd__decap_12
XFILLER_9_39 VGND VGND VPWR VPWR sky130_fd_sc_hd__decap_12
XFILLER_13_70 VGND VGND VPWR VPWR sky130_fd_sc_hd__decap_12
XFILLER_20_237 VGND VGND VPWR VPWR sky130_fd_sc_hd__decap_12
XFILLER_18_15 VGND VGND VPWR VPWR sky130_fd_sc_hd__decap_12
XFILLER_7_208 VGND VGND VPWR VPWR sky130_fd_sc_hd__decap_12
XFILLER_46_123 VGND VGND VPWR VPWR sky130_fd_sc_hd__decap_12
X_168_ _168_/CLK _168_/D VGND VGND VPWR VPWR _168_/Q sky130_fd_sc_hd__dfxtp_1
XFILLER_10_270 VGND VGND VPWR VPWR sky130_fd_sc_hd__decap_12
XFILLER_27_3 VGND VGND VPWR VPWR sky130_fd_sc_hd__decap_12
X_099_ _157_/Q _093_/Y _094_/Y _127_/A VGND VGND VPWR VPWR _102_/A sky130_fd_sc_hd__a31o_1
XFILLER_1_51 VGND VGND VPWR VPWR sky130_fd_sc_hd__decap_6
XFILLER_37_156 VGND VGND VPWR VPWR sky130_fd_sc_hd__decap_6
XFILLER_20_27 VGND VGND VPWR VPWR sky130_fd_sc_hd__fill_2
XFILLER_28_123 VGND VGND VPWR VPWR sky130_fd_sc_hd__decap_12
XFILLER_28_156 VGND VGND VPWR VPWR sky130_fd_sc_hd__decap_12
XFILLER_29_58 VGND VGND VPWR VPWR sky130_fd_sc_hd__decap_12
XPHY_368 VGND VPWR sky130_fd_sc_hd__tapvpwrvgnd_1
XPHY_357 VGND VPWR sky130_fd_sc_hd__tapvpwrvgnd_1
XFILLER_43_115 VGND VGND VPWR VPWR sky130_fd_sc_hd__decap_12
XPHY_346 VGND VPWR sky130_fd_sc_hd__tapvpwrvgnd_1
XPHY_335 VGND VPWR sky130_fd_sc_hd__tapvpwrvgnd_1
XPHY_302 VGND VPWR sky130_fd_sc_hd__tapvpwrvgnd_1
XPHY_313 VGND VPWR sky130_fd_sc_hd__tapvpwrvgnd_1
XPHY_324 VGND VPWR sky130_fd_sc_hd__tapvpwrvgnd_1
XPHY_379 VGND VPWR sky130_fd_sc_hd__tapvpwrvgnd_1
XFILLER_3_277 VGND VGND VPWR VPWR sky130_fd_sc_hd__decap_8
XFILLER_15_27 VGND VGND VPWR VPWR sky130_fd_sc_hd__decap_12
XFILLER_21_310 VGND VGND VPWR VPWR sky130_fd_sc_hd__decap_4
XFILLER_25_115 VGND VGND VPWR VPWR sky130_fd_sc_hd__decap_12
XFILLER_31_15 VGND VGND VPWR VPWR sky130_fd_sc_hd__decap_12
XPHY_165 VGND VPWR sky130_fd_sc_hd__tapvpwrvgnd_1
XPHY_154 VGND VPWR sky130_fd_sc_hd__tapvpwrvgnd_1
XPHY_143 VGND VPWR sky130_fd_sc_hd__tapvpwrvgnd_1
XPHY_132 VGND VPWR sky130_fd_sc_hd__tapvpwrvgnd_1
XPHY_110 VGND VPWR sky130_fd_sc_hd__tapvpwrvgnd_1
XPHY_121 VGND VPWR sky130_fd_sc_hd__tapvpwrvgnd_1
XPHY_176 VGND VPWR sky130_fd_sc_hd__tapvpwrvgnd_1
XPHY_187 VGND VPWR sky130_fd_sc_hd__tapvpwrvgnd_1
XPHY_198 VGND VPWR sky130_fd_sc_hd__tapvpwrvgnd_1
XFILLER_24_192 VGND VGND VPWR VPWR sky130_fd_sc_hd__decap_8
XFILLER_21_70 VGND VGND VPWR VPWR sky130_fd_sc_hd__decap_12
XFILLER_39_229 VGND VGND VPWR VPWR sky130_fd_sc_hd__decap_4
XFILLER_39_218 VGND VGND VPWR VPWR sky130_fd_sc_hd__decap_8
XPHY_1 VGND VGND VPWR VPWR sky130_fd_sc_hd__decap_3
XFILLER_30_195 VGND VGND VPWR VPWR sky130_fd_sc_hd__decap_4
XFILLER_7_94 VGND VGND VPWR VPWR sky130_fd_sc_hd__decap_12
XFILLER_26_15 VGND VGND VPWR VPWR sky130_fd_sc_hd__decap_12
XFILLER_21_151 VGND VGND VPWR VPWR sky130_fd_sc_hd__decap_12
XFILLER_21_184 VGND VGND VPWR VPWR sky130_fd_sc_hd__decap_12
Xclkbuf_2_3_0_clk clkbuf_2_3_0_clk/A VGND VGND VPWR VPWR _168_/CLK sky130_fd_sc_hd__clkbuf_1
XFILLER_29_284 VGND VGND VPWR VPWR sky130_fd_sc_hd__fill_1
XFILLER_8_144 VGND VGND VPWR VPWR sky130_fd_sc_hd__decap_12
XFILLER_8_111 VGND VGND VPWR VPWR sky130_fd_sc_hd__decap_12
XFILLER_35_210 VGND VGND VPWR VPWR sky130_fd_sc_hd__decap_8
XFILLER_50_213 VGND VGND VPWR VPWR sky130_fd_sc_hd__decap_12
XFILLER_35_298 VGND VGND VPWR VPWR sky130_fd_sc_hd__decap_12
XFILLER_37_58 VGND VGND VPWR VPWR sky130_fd_sc_hd__decap_12
XFILLER_17_265 VGND VGND VPWR VPWR sky130_fd_sc_hd__decap_12
XFILLER_17_298 VGND VGND VPWR VPWR sky130_fd_sc_hd__decap_12
XFILLER_4_180 VGND VGND VPWR VPWR sky130_fd_sc_hd__decap_12
XFILLER_23_27 VGND VGND VPWR VPWR sky130_fd_sc_hd__decap_12
XFILLER_14_213 VGND VGND VPWR VPWR sky130_fd_sc_hd__decap_12
XFILLER_13_82 VGND VGND VPWR VPWR sky130_fd_sc_hd__decap_12
XFILLER_1_172 VGND VGND VPWR VPWR sky130_fd_sc_hd__decap_12
XFILLER_20_249 VGND VGND VPWR VPWR sky130_fd_sc_hd__decap_8