*SPEF "IEEE 1481-1998"
*DESIGN "mux"
*DATE "Tue Apr 27 23:16:27 2021"
*VENDOR "AUC CSCE Department"
*PROGRAM "SPEF Extractor"
*VERSION "1.0"
*DESIGN_FLOW "PIN_CAP NONE"
*DIVIDER /
*DELIMITER :
*BUS_DELIMITER []
*T_UNIT 1.00000 NS
*C_UNIT 1.00000 PF
*R_UNIT 1.00000 OHM
*L_UNIT 1.00000 HENRY


*NAME_MAP
*0 address0
*1 address1
*2 in0
*3 in1
*4 in2
*5 in3
*6 out
*7 net1
*8 net2
*9 net3
*10 net4
*11 net5
*12 net6
*13 net7

*D_NET *0 0.00082816558862
*CONN
*P address0 I
*I input1:A I
*CAP
0 *0:1 8.932229792e-05
1 *0:2 0.0007388432907000001
2 input1:A 0
*RES
0 *0:1 input1:A 0.8214285714285714
1 *0:2 *0:3 8.348214285714285
2 input1:A input1:A 0
3 *0:1 *0:2 0
*END

*D_NET *1 0.00108705459334
*CONN
*P address1 I
*I input2:A I
*CAP
3 *1:1 0.0006858781437400002
4 *1:3 0.00040117644959999997
5 input2:A 0
*RES
4 *1:1 *1:2 7.741071428571428
5 *1:3 input2:A 4.107142857142857
6 *1:3 *1:2 0
7 input2:A input2:A 0
*END

*D_NET *2 0.00086896688728
*CONN
*P in0 I
*I input3:A I
*CAP
6 input3:A 0.00012830406688
7 *2:2 0.00034160468850000003
8 *2:4 0.00039905813189999997
9 *2:1 0
*RES
8 input3:A *2:1 1.232142857142857
9 *2:2 *2:3 3.7946428571428568
10 *2:4 *2:5 0.6846333333333334
11 input3:A input3:A 0
12 *2:1 *2:3 0
13 *2:2 *2:4 0
*END

*D_NET *3 0.00063062372596
*CONN
*P in1 I
*I input4:A I
*CAP
10 input4:A 0.00012830406688
11 *3:2 0.00010326152718000001
12 *3:4 0.00039905813189999997
13 *3:1 0
14 *3:3 0
*RES
14 input4:A *3:1 1.232142857142857
15 *3:2 *3:3 1.0624999999999998
16 *3:4 *3:5 0.6846333333333334
17 input4:A input4:A 0
18 *3:1 *3:2 0
19 *3:3 *3:4 0
*END

*D_NET *4 0.00046290231888
*CONN
*P in2 I
*I input5:A I
*CAP
15 *4:1 0.0003596407917
16 *4:3 0.00010326152718000001
17 input5:A 0
*RES
20 *4:1 *4:2 0.6125666666666667
21 *4:3 *4:4 1.0624999999999998
22 *4:3 *4:2 0
23 input5:A input5:A 0
24 input5:A *4:4 0
*END

*D_NET *5 0.0009451108955000001
*CONN
*P in3 I
*I input6:A I
*CAP
18 *5:1 0.0002062676048
19 *5:2 0.0007388432907000001
20 input6:A 0
*RES
25 *5:1 input6:A 2.0535714285714284
26 *5:2 *5:3 8.348214285714285
27 input6:A input6:A 0
28 *5:1 *5:2 0
*END

*D_NET *6 0.00087816237054
*CONN
*P out O
*I output7:X O
*CAP
21 *6:1 0.00063291299678
22 *6:3 0.00024524937376
23 output7:X 0
*RES
29 *6:1 *6:2 7.133928571428571
30 *6:3 output7:X 2.464285714285714
31 *6:3 *6:2 0
32 output7:X output7:X 0
*END

*D_NET *7 0.0010627982936400001
*CONN
*I input1:X O
*I _0_:S0 I
*CAP
24 _0_:S0 0.00028423114272
25 *7:2 0.00077856715092
26 *7:1 0
27 input1:X 0
*RES
33 _0_:S0 *7:1 2.875
34 *7:2 *7:3 8.803571428571427
35 *7:1 *7:2 0
36 input1:X input1:X 0
37 input1:X *7:3 0
*END

*D_NET *8 0.0021510374712
*CONN
*I input2:X O
*I _0_:S1 I
*CAP
28 input2:X 0.00055710352544
29 *8:2 0.00138766634096
30 *8:4 0.0002062676048
31 *8:1 0
32 _0_:S1 0
*RES
38 input2:X *8:1 5.75
39 *8:2 *8:3 15.785714285714285
40 *8:4 _0_:S1 2.0535714285714284
41 input2:X input2:X 0
42 *8:1 *8:2 0
43 *8:4 *8:3 0
44 _0_:S1 _0_:S1 0
*END

*D_NET *9 0.0015103774248000001
*CONN
*I input3:X O
*I _0_:A0 I
*CAP
33 *9:1 5.034052896000001e-05
34 *9:2 0.0011758057531200002
35 _0_:A0 0.00028423114272
36 input3:X 0
37 *9:4 0
*RES
45 *9:1 input3:X 0.4107142857142857
46 *9:2 *9:3 13.357142857142856
47 _0_:A0 *9:4 2.875
48 input3:X input3:X 0
49 *9:1 *9:2 0
50 *9:4 *9:3 0
51 _0_:A0 _0_:A0 0
*END

*D_NET *10 0.0008604685362399999
*CONN
*I input4:X O
*I _0_:A1 I
*CAP
38 *10:1 0.0004791399875199999
39 *10:2 0.00038132854871999994
40 _0_:A1 0
41 input4:X 0
*RES
52 *10:1 input4:X 4.928571428571428
53 *10:2 *10:3 4.249999999999999
54 _0_:A1 _0_:A1 0
55 _0_:A1 *10:2 0
56 *10:1 *10:3 0
57 input4:X input4:X 0
*END

*D_NET *11 0.0006861055348400001
*CONN
*I input5:X O
*I _0_:A2 I
*CAP
42 *11:1 9.002024044000002e-05
43 *11:3 0.0005960852944
44 input5:X 0
45 _0_:A2 0
*RES
58 *11:1 *11:2 0.9107142857142857
59 *11:3 _0_:A2 6.160714285714286
60 input5:X input5:X 0
61 input5:X *11:1 0
62 *11:3 *11:2 0
63 _0_:A2 _0_:A2 0
*END

*D_NET *12 0.0016353693796
*CONN
*I input6:X O
*I _0_:A3 I
*CAP
46 *12:1 5.034052896000001e-05
47 input6:X 0.00067404883232
48 *12:3 0.0009109800183200002
49 _0_:A3 0
50 *12:2 0
*RES
64 *12:1 _0_:A3 0.4107142857142857
65 input6:X *12:2 6.982142857142857
66 *12:3 *12:4 10.321428571428571
67 _0_:A3 _0_:A3 0
68 *12:1 *12:3 0
69 *12:2 *12:4 0
70 input6:X input6:X 0
*END

*D_NET *13 0.0014769886388800002
*CONN
*I output7:A I
*I _0_:X O
*CAP
51 *13:1 0.00138766634096
52 _0_:X 8.932229792e-05
53 output7:A 0
54 *13:3 0
*RES
71 *13:1 *13:2 15.785714285714285
72 _0_:X *13:3 0.8214285714285714
73 output7:A output7:A 0
74 output7:A *13:1 0
75 *13:3 *13:2 0
76 _0_:X _0_:X 0
*END

