*SPEF "IEEE 1481-1998"
*DESIGN "register"
*DATE "Tue Apr 27 23:20:43 2021"
*VENDOR "AUC CSCE Department"
*PROGRAM "SPEF Extractor"
*VERSION "1.0"
*DESIGN_FLOW "PIN_CAP NONE"
*DIVIDER /
*DELIMITER :
*BUS_DELIMITER []
*T_UNIT 1.00000 NS
*C_UNIT 1.00000 PF
*R_UNIT 1.00000 OHM
*L_UNIT 1.00000 HENRY


*NAME_MAP
*0 clk
*1 d
*2 q
*3 wrenable
*4 _0_
*5 net1
*6 net2
*7 net3
*8 net4

*D_NET *0 0.0012777312870799998
*CONN
*P clk I
*I input1:A I
*CAP
0 input1:A 0.0003621946806399999
1 *0:2 0.0004908255476800001
2 *0:3 0.00026215696806
3 *0:5 0.0001625540907
4 *0:1 0
*RES
0 input1:A *0:1 3.6964285714285707
1 *0:2 *0:1 390.3999999999999
2 *0:3 *0:4 2.883928571428571
3 *0:5 *0:6 0.25223333333333336
4 input1:A input1:A 0
5 *0:1 *0:1 0
6 *0:2 *0:2 0
7 *0:2 *0:4 0
8 *0:3 *0:5 0
*END

*D_NET *1 0.0008336583476
*CONN
*P d I
*I input2:A I
*CAP
5 *1:1 0.0003596407917
6 *1:3 0.00047401755590000005
7 *1:4 0
8 input2:A 0
*RES
9 *1:1 *1:2 0.6125666666666667
10 *1:3 *1:4 5.3125
11 *1:4 *1:2 0
12 input2:A input2:A 0
13 input2:A *1:3 0
*END

*D_NET *2 0.0011260363623
*CONN
*P q O
*I output4:X O
*CAP
9 output4:X 0.00044015821855999997
10 *2:2 0.0006858781437400002
11 *2:1 0
*RES
14 output4:X *2:1 4.517857142857142
15 *2:2 *2:3 7.741071428571428
16 output4:X output4:X 0
17 *2:1 *2:2 0
*END

*D_NET *3 0.00108705459334
*CONN
*P wrenable I
*I input3:A I
*CAP
12 *3:1 0.0006858781437400002
13 *3:3 0.00040117644959999997
14 input3:A 0
*RES
18 *3:1 *3:2 7.741071428571428
19 *3:3 input3:A 4.107142857142857
20 *3:3 *3:2 0
21 input3:A input3:A 0
*END

*D_NET *4 0.0017650332155200001
*CONN
*I _2_:D I
*I _1_:X O
*CAP
15 _1_:X 0.00016728583584
16 *4:2 0.00021008103872
17 *4:3 0.00138766634096
18 *4:1 0
19 _2_:D 0
*RES
22 _1_:X *4:1 1.6428571428571428
23 *4:2 _2_:D 2.09375
24 *4:3 *4:4 15.785714285714285
25 _1_:X _1_:X 0
26 *4:1 *4:3 0
27 *4:2 *4:4 0
28 _2_:D _2_:D 0
*END

*D_NET *5 0.0020051559259600003
*CONN
*I input1:X O
*I _2_:CLK I
*CAP
20 *5:1 0.00016728583584
21 *5:2 0.0018378700901200003
22 input1:X 0
23 _2_:CLK 0
*RES
29 *5:1 input1:X 1.6428571428571428
30 *5:2 *5:3 20.94642857142857
31 input1:X input1:X 0
32 *5:1 *5:2 0
33 _2_:CLK _2_:CLK 0
34 _2_:CLK *5:3 0
*END

*D_NET *6 0.002474421336
*CONN
*I input2:X O
*I _1_:A1 I
*CAP
24 input2:X 0.00055710352544
25 *6:2 0.0019173178105600002
26 _1_:A1 0
27 *6:1 0
*RES
35 input2:X *6:1 5.75
36 *6:2 *6:3 21.857142857142854
37 _1_:A1 _1_:A1 0
38 _1_:A1 *6:2 0
39 *6:1 *6:3 0
40 input2:X input2:X 0
*END

*D_NET *7 0.00096229002964
*CONN
*I input3:X O
*I _1_:S I
*CAP
28 input3:X 0.00055710352544
29 *7:2 0.00035484597524
30 _1_:S 5.034052896000001e-05
31 *7:1 0
32 *7:4 0
*RES
41 input3:X *7:1 5.75
42 *7:2 *7:3 3.946428571428571
43 _1_:S *7:4 0.4107142857142857
44 input3:X input3:X 0
45 *7:1 *7:2 0
46 *7:4 *7:3 0
47 _1_:S _1_:S 0
*END

*D_NET *8 0.002630946811
*CONN
*I output4:A I
*I _1_:A0 I
*I _2_:Q O
*CAP
33 *8:1 0.00125447457434
34 *8:3 0.00032836340175999997
35 *8:5 0.00075201237024
36 *8:2 4.640188412000001e-05
37 *8:6 0.00024969458054000004
38 _1_:A0 0
39 _2_:Q 0
40 output4:A 0
*RES
48 *8:1 *8:2 14.258928571428571
49 *8:3 *8:4 3.642857142857143
50 *8:5 output4:A 7.803571428571428
51 *8:2 *8:6 0.4107142857142857
52 *8:6 *8:3 2.7410714285714284
53 _1_:A0 _1_:A0 0
54 _1_:A0 *8:1 0
55 _2_:Q _2_:Q 0
56 _2_:Q *8:3 0
57 *8:5 *8:4 0
58 output4:A output4:A 0
*END

